959
 ghb 
Pt    -4.25133    -7.37216    -9.19507
Pt    -0.02315    -7.72718    -9.60511
Pt     3.43756    -7.84578    -9.45567
Pt    -7.93592    -3.64066    -9.35853
Pt    -4.03252    -3.82737   -10.31840
Pt    -0.04187    -3.89078   -10.63580
Pt     3.89316    -3.93374   -10.84740
Pt     7.35021    -4.11007    -9.76127
Pt    -7.60155     0.31950    -9.52753
Pt    -3.77674    -0.04752   -10.64680
Pt    -0.15790     0.02906   -10.88390
Pt     3.79742     0.01149   -10.72630
Pt     7.70982    -0.04186    -9.87743
Pt    -7.67937     4.06154    -9.19974
Pt    -4.11348     4.02916   -10.75450
Pt    -0.19819     3.91203   -10.68020
Pt     3.82189     3.99921   -10.71870
Pt     7.81109     4.00256    -9.68821
Pt    -3.98766     7.66303    -9.40209
Pt    -0.13588     7.56667    -9.97657
Pt     3.91445     7.67137    -9.47414
Ni    -4.64037   -10.53410    -5.78737
Ni    -0.49779   -11.24490    -5.71085
Ni     3.69056   -11.04580    -5.58496
Ni    -8.08701    -7.29288    -6.52631
Ni    -3.45322    -7.42368    -6.54459
Ni     0.27159    -7.28914    -7.17431
Ni     3.68297    -7.01994    -6.99774
Ni     7.37239    -8.08521    -6.58098
Ni   -10.94730    -3.36341    -5.87706
Ni    -7.40815    -4.18607    -6.31967
Ni    -3.50644    -3.44836    -7.18538
Ni     0.09161    -3.53623    -7.15162
Ni     3.57743    -3.40819    -7.07653
Ni     7.15613    -3.26710    -7.02173
Ni    10.43390    -4.42686    -6.43328
Ni   -11.05860     0.58329    -5.66478
Ni    -7.04545     0.10300    -7.15699
Ni    -3.46171     0.04785    -7.07283
Ni     0.10011    -0.09950    -7.11367
Ni     3.61189     0.16136    -7.20729
Ni     7.19858     0.32276    -6.83332
Ni    10.84200    -0.38420    -6.23832
Ni   -10.63530     4.75410    -5.27434
Ni    -7.11311     3.24466    -6.81796
Ni    -3.54356     3.51670    -6.92809
Ni    -0.10958     3.57860    -7.11126
Ni     3.54950     3.51966    -6.90699
Ni     7.06945     3.57394    -6.99232
Ni    10.83630     3.87076    -5.99263
Ni    -7.61491     8.08689    -6.14459
Ni    -3.59355     6.93985    -6.90011
Ni     0.13993     7.16474    -7.02819
Ni     3.39044     7.27617    -6.80389
Ni     7.63942     7.72282    -6.47134
Ni    -3.93288    10.91210    -6.24088
Ni     0.00645    10.93260    -6.38499
Ni     4.09867    10.70870    -6.07921
Ni    -8.06179    -9.68187    -2.70277
Ni    -4.73093   -11.83460    -3.52138
Ni     0.40762   -10.42500    -3.39651
Ni     3.45646   -11.83730    -3.48224
Ni     7.04375   -10.09890    -2.52257
Ni   -11.88570    -7.37150    -4.01365
Ni    -8.06022    -7.31345    -2.36196
Ni    -3.38102    -7.25334    -3.91114
Ni     0.19805    -6.95677    -3.54037
Ni     3.84130    -6.99811    -3.49023
Ni     7.39125    -6.79308    -3.61521
Ni    10.62050    -6.66657    -3.17880
Ni   -11.72450    -3.35584    -3.63649
Ni    -6.91235    -3.82143    -3.79818
Ni    -3.48254    -3.64257    -3.74054
Ni     0.19262    -3.39144    -3.62832
Ni     3.75138    -3.33675    -3.64854
Ni     7.15704    -3.31862    -3.53359
Ni    11.26470    -4.45753    -4.34402
Ni   -10.39980    -0.38891    -3.51329
Ni    -7.06160    -0.35446    -3.56937
Ni    -3.50770    -0.08335    -3.57406
Ni    -0.05615    -0.00161    -3.70727
Ni     3.59826     0.06884    -3.53997
Ni     6.96911     0.19726    -3.60335
Ni    10.32340     0.27562    -3.33438
Ni   -11.55940     4.57445    -3.08057
Ni    -7.01279     3.36837    -3.48979
Ni    -3.56319     3.44129    -3.56596
Ni    -0.00915     3.47080    -3.62366
Ni     3.39719     3.61250    -3.49364
Ni     6.97896     3.69938    -3.47081
Ni    11.81120     3.41839    -3.80142
Ni    -9.94761     8.44857    -2.04193
Ni    -7.15836     7.05531    -3.30623
Ni    -3.61358     7.31854    -3.46334
Ni    -0.04515     7.05871    -3.44532
Ni     3.40871     7.16689    -3.47171
Ni     6.92300     7.41933    -3.40173
Ni    10.45830     7.08416    -2.69237
Ni    -6.29990    11.00670    -2.51296
Ni    -2.14195    12.66520    -3.47310
Ni    -0.20729    10.62620    -3.42061
Ni     3.68516    11.29090    -3.76232
Ni     7.66035    10.85560    -3.05060
Ni    -8.24034   -10.86950     1.60639
Ni    -3.24679   -10.61240    -0.15488
Ni     0.35590   -10.68750    -0.19277
Ni     3.95521   -10.42860     0.05274
Ni     6.70919   -10.88740    -0.37463
Ni   -10.92800    -7.42480     0.36367
Ni    -6.86385    -7.22909    -0.44490
Ni    -3.21432    -7.06203    -0.02893
Ni     0.35413    -6.95242     0.03730
Ni     3.93592    -7.00742     0.01961
Ni     7.61132    -7.03773     0.15004
Ni    11.07230    -6.63594     0.61002
Ni   -10.20860    -3.94915    -0.35582
Ni    -6.86782    -3.81105    -0.14375
Ni    -3.42182    -3.65048    -0.10905
Ni     0.20170    -3.58140    -0.04789
Ni     3.62934    -3.52260     0.10808
Ni     7.16294    -3.47463     0.05699
Ni    10.25780    -3.50686     0.13188
Ni   -10.57770    -0.49770     0.04921
Ni    -7.03179    -0.29730    -0.06908
Ni    -3.50715    -0.17843    -0.08175
Ni     0.08272    -0.06850     0.02944
Ni     3.45121     0.06486     0.01625
Ni     7.06478     0.21549     0.06253
Ni    10.56680     0.09464    -0.01772
Ni   -10.61100     3.10833     0.11571
Ni    -6.99996     3.27772     0.08650
Ni    -3.45208     3.24753     0.05913
Ni     0.02230     3.41601     0.00776
Ni     3.49945     3.49582    -0.00574
Ni     7.05103     3.65784    -0.04198
Ni    10.38570     3.67658     0.11301
Ni   -10.40400     7.86377     0.17986
Ni    -7.03128     6.77996    -0.06336
Ni    -3.49121     6.77787    -0.14462
Ni    -0.12736     6.87604    -0.01467
Ni     3.47264     6.98564     0.04423
Ni     7.06333     7.30844     0.08405
Ni    11.09120     6.60005    -0.52279
Ni    -6.96543    10.72510    -0.32396
Ni    -3.52843    10.27550     0.19611
Ni     0.05192    10.53120     0.28303
Ni     3.77662    10.56140     0.23232
Ni     7.35422    12.48400    -1.28460
Ni    -8.30834   -11.50070     3.80120
Ni    -4.35379   -11.83850     3.69372
Ni     0.28878   -10.32120     3.40591
Ni     3.48926   -11.65820     3.54225
Ni     7.30732   -10.46220     3.42566
Ni   -10.63010    -7.68304     2.69111
Ni    -6.85442    -7.37206     3.25278
Ni    -3.27607    -7.23322     3.33212
Ni     0.20854    -7.05327     3.58853
Ni     3.75261    -7.04722     3.44927
Ni     7.12840    -6.81043     3.64614
Ni    10.43960    -6.92416     2.74393
Ni   -11.74970    -3.91301     3.22085
Ni    -6.87582    -3.96131     3.43502
Ni    -3.50327    -3.65419     3.42170
Ni     0.13311    -3.50567     3.44011
Ni     3.58384    -3.56127     3.51397
Ni     7.04991    -3.32694     3.63432
Ni    11.96720    -3.40642     3.74517
Ni   -10.30690    -0.37185     3.43052
Ni    -7.04914    -0.46675     3.40604
Ni    -3.39642    -0.17042     3.38847
Ni     0.05906    -0.09868     3.58891
Ni     3.53856     0.14599     3.55517
Ni     7.06236     0.15979     3.60998
Ni    10.53210     0.11025     3.63779
Ni   -12.25980     4.14875     3.64397
Ni    -7.10709     3.12004     3.48749
Ni    -3.43581     3.32321     3.52876
Ni     0.03572     3.48535     3.54980
Ni     3.54811     3.48987     3.49670
Ni     7.26257     3.54664     3.68068
Ni    11.35090     4.66061     3.67480
Ni   -11.17450     7.29428     2.37259
Ni    -7.03847     6.82853     3.52388
Ni    -3.46757     6.90661     3.36492
Ni     0.04943     6.92041     3.61728
Ni     3.51123     7.11648     3.49579
Ni     7.04370     7.03148     3.47661
Ni    10.45390     6.86313     3.24730
Ni    -7.51318    10.67730     1.91039
Ni    -3.76834    11.77180     3.10442
Ni    -0.14463    10.41710     3.56123
Ni     3.70021    11.51560     3.54454
Ni     7.14279     9.93298     2.54605
Ni    -4.26226   -10.71100     5.90038
Ni    -0.38400   -11.08640     5.73784
Ni     3.65565   -11.05440     5.80239
Ni    -7.79334    -7.68363     6.37147
Ni    -3.30634    -7.26338     6.72255
Ni     0.00435    -7.15385     6.99716
Ni     3.73575    -7.12278     7.05710
Ni     7.83274    -7.17317     6.57067
Ni   -11.00230    -4.10205     5.43763
Ni    -6.90442    -3.70958     6.92175
Ni    -3.32894    -3.75804     6.87857
Ni     0.17840    -3.56247     7.05997
Ni     3.65191    -3.44784     7.11257
Ni     7.09385    -3.19497     7.16904
Ni    10.92510    -3.43788     5.87991
Ni   -11.19010     0.11859     5.66062
Ni    -7.12056    -0.28249     6.94290
Ni    -3.45847    -0.15693     7.00673
Ni     0.09225    -0.01973     7.26329
Ni     3.59682     0.10134     7.27134
Ni     7.17246     0.01557     7.29705
Ni    11.08050     0.54078     6.17916
Ni   -10.91140     4.13960     5.60725
Ni    -7.07948     3.08866     6.90062
Ni    -3.56629     3.26198     6.88994
Ni    -0.04436     3.49066     7.20385
Ni     3.67313     3.49767     7.11427
Ni     7.09448     3.59836     7.11763
Ni    10.55920     4.45647     6.97473
Ni    -7.59735     7.51283     5.71706
Ni    -3.62773     6.83486     7.01307
Ni    -0.07346     7.02249     7.32602
Ni     3.45178     7.02496     7.03280
Ni     7.42319     7.75907     6.62238
Ni    -4.15238    10.70550     5.23891
Ni    -0.26619    11.17270     5.85800
Ni     3.89657    10.76750     5.73431
Pt    -3.85520    -7.83056     9.55487
Pt     0.13659    -7.48305     9.68310
Pt     3.94100    -7.57061     9.40055
Pt    -7.55838    -3.90838     9.31427
Pt    -3.90942    -4.15946    10.67370
Pt     0.10666    -3.92001    10.71740
Pt     3.86517    -3.84122    10.96380
Pt     7.65365    -3.79134     9.67286
Pt    -7.65841    -0.32023     9.46614
Pt    -3.93391    -0.08602    10.63570
Pt    -0.04589    -0.12826    10.87090
Pt     3.79134     0.06536    10.80310
Pt     7.61553     0.19495    10.16510
Pt    -7.73961     3.84987     9.19031
Pt    -4.27758     3.78989    10.74160
Pt    -0.32297     3.85995    10.93000
Pt     3.75779     4.11390    10.91700
Pt     7.43209     4.20419     9.99204
Pt    -4.13389     7.58957     9.21565
Pt    -0.39217     7.53880     9.78081
Pt     3.66005     7.74401     9.64523
Pt    -6.13706    -5.56773    -9.71741
Pt    -2.00856    -5.91922   -10.09510
Pt     1.88127    -5.86857   -10.52930
Pt     5.42604    -6.07982    -9.93354
Pt    -5.96144    -1.81428   -10.08840
Pt    -1.97163    -2.03661   -10.72170
Pt     1.85299    -1.94645   -10.75430
Pt     5.94727    -1.91843   -10.63440
Pt    -6.07594     2.32228   -10.57610
Pt    -2.10918     1.99935   -10.66980
Pt     1.86442     2.02649   -10.68910
Pt     5.91403     1.96014   -10.45700
Pt    -5.81244     5.83406    -9.48775
Pt    -2.18259     5.96093   -10.58310
Pt     1.91246     5.94676   -10.41630
Pt     5.71667     5.78298    -9.68936
Ni    -6.35552    -8.97399    -6.25756
Ni    -2.46697   -10.03670    -6.52082
Ni     1.65253   -10.60550    -6.59641
Ni     5.64358    -9.60141    -6.20572
Ni    -9.63094    -5.40514    -6.51041
Ni    -5.54015    -6.17777    -6.12970
Ni    -1.70663    -5.76014    -7.22624
Ni     1.92355    -5.19265    -7.10023
Ni     5.44523    -5.32748    -7.10997
Ni     9.02740    -6.38547    -6.91580
Ni   -10.30040    -1.35967    -6.69118
Ni    -5.28219    -1.79029    -7.04039
Ni    -1.78053    -1.73631    -7.28457
Ni     1.81186    -1.80262    -7.16381
Ni     5.36610    -1.61344    -6.96758
Ni     9.81772    -2.25274    -7.29561
Ni   -10.35450     2.63742    -6.61547
Ni    -5.33900     1.70818    -6.81083
Ni    -1.72979     1.78125    -7.21531
Ni     1.68775     1.83489    -7.06867
Ni     5.35866     1.87263    -7.08063
Ni     9.89859     1.86087    -6.83958
Ni    -9.25070     6.56709    -5.77800
Ni    -5.47413     5.49082    -6.90245
Ni    -1.72741     5.47506    -7.03530
Ni     1.72653     5.35734    -6.94671
Ni     5.36719     5.50986    -6.87286
Ni     9.25812     5.82802    -6.33359
Ni    -5.79522     9.51462    -6.24092
Ni    -1.94995     9.88982    -7.00867
Ni     1.98299     9.77062    -6.73295
Ni     6.04345     9.28152    -6.40708
Ni    -2.71489   -12.34590    -2.43308
Ni     1.40656   -12.50400    -2.48289
Ni    -9.90188    -8.42404    -3.28188
Ni    -5.43500    -9.42836    -2.44997
Ni    -1.27627    -8.73562    -3.47436
Ni     2.04730    -8.68420    -3.53003
Ni     5.57040    -8.48032    -3.34353
Ni     8.94870    -8.50249    -2.85014
Ni   -11.32630    -7.31164    -1.81124
Ni    -5.20775    -5.44224    -3.88710
Ni    -1.62558    -5.35294    -3.68231
Ni     2.01632    -5.20205    -3.51901
Ni     5.50527    -5.06832    -3.54758
Ni     8.93554    -5.01466    -3.52689
Ni   -12.59360    -1.38644    -2.65538
Ni    -8.78933    -2.01507    -3.66568
Ni    -5.11782    -1.97640    -3.55405
Ni    -1.80281    -1.84535    -3.70376
Ni     1.85758    -1.70273    -3.50935
Ni     5.37945    -1.58399    -3.64377
Ni     8.74915    -1.53711    -3.48125
Ni    12.11520    -2.66383    -3.34602
Ni   -12.52950     2.61896    -2.33792
Ni    -8.85707     1.43164    -3.39100
Ni    -5.16173     1.60782    -3.44360
Ni    -1.76229     1.69354    -3.59163
Ni     1.76576     1.70575    -3.53855
Ni     5.28117     1.93323    -3.47752
Ni     8.68454     1.95239    -3.30953
Ni    12.59370     1.27763    -2.97661
Ni    -8.79334     5.01401    -3.33187
Ni    -5.44819     5.26889    -3.51080
Ni    -1.82252     5.24153    -3.50338
Ni     1.63416     5.24080    -3.50141
Ni     5.15426     5.44353    -3.44222
Ni     8.61072     5.59095    -3.44876
Ni    -8.54205    10.08780    -2.40910
Ni    -5.26874     9.09596    -3.34917
Ni    -1.75696     8.85740    -3.42949
Ni     1.66330     8.84755    -3.29268
Ni     5.18102     9.16696    -3.20547
Ni     8.99488     8.94285    -3.00160
Ni    -0.46788    12.78200    -2.01654
Ni     1.71888    12.36360    -2.98991
Ni    -6.48180   -11.76370     0.26136
Ni    -2.57373   -12.72210    -0.05787
Ni     1.43593   -12.86890    -0.03952
Ni     5.28869   -12.49840     0.10293
Ni    -9.91637    -9.41453     1.07080
Ni    -4.95861    -8.83498    -0.26744
Ni    -1.46475    -8.78746    -0.03160
Ni     2.15449    -8.82421    -0.03059
Ni     5.87921    -8.62130    -0.04274
Ni     9.60298    -8.32537     1.05967
Ni   -12.02460    -5.50444    -0.47243
Ni    -8.51212    -5.63823    -0.54544
Ni    -5.02170    -5.43739    -0.07870
Ni    -1.56507    -5.31452    -0.10757
Ni     2.01843    -5.35770    -0.05503
Ni     5.47559    -5.14484    -0.00798
Ni     9.79896    -5.50589    -1.32014
Ni    12.29990    -4.90967     0.00779
Ni   -12.83700    -1.56979    -0.13539
Ni    -8.78407    -2.00847    -0.11519
Ni    -5.22017    -1.97271    -0.08184
Ni    -1.63417    -1.81273    -0.08914
Ni     1.93550    -1.82955    -0.06225
Ni     5.20133    -1.67020     0.04734
Ni     8.87416    -1.59028     0.00158
Ni    12.78520    -0.99420     0.49083
Ni   -13.04630     2.37807     0.10594
Ni    -8.96609     1.35669     0.04401
Ni    -5.24959     1.54789    -0.13497
Ni    -1.69351     1.60749    -0.03020
Ni     1.74568     1.67004     0.02430
Ni     5.25824     1.82062    -0.04868
Ni     8.87759     1.98819    -0.02814
Ni    12.85710     1.03597    -0.55875
Ni   -12.06250     6.19347     0.48067
Ni    -8.88193     4.84999     0.08042
Ni    -5.30872     5.03134    -0.08080
Ni    -1.72331     5.17205    -0.09888
Ni     1.68921     5.22442     0.01415
Ni     5.34349     5.33795     0.04835
Ni     8.88286     5.74294    -0.15183
Ni    12.42930     4.88669    -0.25751
Ni    -8.72582     9.40160    -0.03989
Ni    -5.23153     8.41540    -0.02542
Ni    -1.77086     8.66745     0.05931
Ni     1.74053     8.85422     0.10772
Ni     5.24205     8.82371     0.15193
Ni     8.71225    10.47580    -1.02231
Ni    -4.98484    11.88410    -0.80995
Ni    -1.16455    12.75370     0.18467
Ni     3.33211    12.49920     1.09746
Ni     5.29652    12.26100    -0.17763
Ni    -2.46628   -12.51610     2.45830
Ni     1.46563   -12.46850     2.52496
Ni    -9.40164    -9.54122     3.30434
Ni    -5.17320    -9.28156     3.17787
Ni    -1.52034    -8.76510     3.31298
Ni     2.04026    -8.68773     3.56282
Ni     5.71706    -8.72267     3.10294
Ni     8.87413    -8.57147     3.08254
Ni    -8.63090    -5.72531     3.22511
Ni    -5.03954    -5.59117     3.26602
Ni    -1.64819    -5.29570     3.54744
Ni     1.85733    -5.38504     3.51955
Ni     5.30769    -5.15557     3.65747
Ni     8.75693    -5.04227     3.53623
Ni   -12.59330    -1.76618     2.18880
Ni    -8.77295    -2.28790     3.46191
Ni    -5.26857    -2.07681     3.44636
Ni    -1.65601    -1.87103     3.53517
Ni     1.83050    -1.75796     3.68091
Ni     5.12912    -1.67105     3.65571
Ni     8.72291    -1.56665     3.62186
Ni    12.67520    -1.20232     2.91687
Ni   -12.81370     2.07706     2.58335
Ni    -8.74238     1.45025     3.46410
Ni    -5.29112     1.35432     3.33636
Ni    -1.59522     1.72531     3.59810
Ni     1.74356     1.77584     3.59226
Ni     5.35349     1.93301     3.57321
Ni     8.94795     1.80974     3.56956
Ni    12.28830     2.65969     3.07910
Ni    -8.77640     4.85872     3.47854
Ni    -5.28185     4.96891     3.56932
Ni    -1.67492     5.02875     3.59081
Ni     1.78997     5.29962     3.47526
Ni     5.41560     5.31779     3.56189
Ni     8.81921     5.21262     3.61799
Ni    -9.21775     9.03191     2.23317
Ni    -5.26944     8.56176     3.28576
Ni    -1.66146     8.60208     3.51882
Ni     1.70046     8.78377     3.53982
Ni     5.17385     8.87097     3.39554
Ni     9.04610     8.68683     3.06677
Ni    -1.73639    12.65000     2.53355
Ni     2.10593    12.96790     3.24439
Ni    -6.18566    -9.40849     6.44972
Ni    -2.19040   -10.20980     7.00121
Ni     1.67330   -10.35570     6.69837
Ni     5.96845    -8.84969     6.57798
Ni    -9.38779    -6.00718     6.07703
Ni    -5.12124    -5.70129     6.76226
Ni    -1.56107    -5.40585     6.89409
Ni     1.87584    -5.45255     7.12864
Ni     5.42965    -5.13422     7.11629
Ni     9.61765    -5.34361     6.30022
Ni   -10.32740    -2.02072     6.33187
Ni    -5.10940    -2.01186     6.88883
Ni    -1.67913    -1.85198     7.10968
Ni     1.85816    -1.70208     7.18850
Ni     5.39058    -1.63313     7.35088
Ni    10.26190    -1.51556     7.03408
Ni   -10.51930     2.09415     6.60961
Ni    -5.22112     1.40027     6.90562
Ni    -1.76285     1.59642     7.11939
Ni     1.73695     1.76853     7.18474
Ni     5.32931     1.72984     7.10570
Ni     9.96326     2.36943     7.26404
Ni    -9.38703     6.00583     5.92854
Ni    -5.34067     4.94549     6.78741
Ni    -1.73065     5.11783     6.99552
Ni     1.68703     5.31137     7.23354
Ni     5.37048     5.28924     7.09503
Ni     9.07913     6.15462     7.01596
Ni    -5.95995     9.23277     5.57298
Ni    -2.31197    10.22380     6.48997
Ni     1.71714    10.02710     6.74402
Ni     5.62291     9.35565     6.23570
Pt    -5.81912    -5.99751     9.66557
Pt    -1.93443    -6.01017    10.49710
Pt     2.04838    -5.87661    10.56310
Pt     5.72978    -5.62698     9.96668
Pt    -5.67114    -2.12071    10.23450
Pt    -1.91678    -1.94581    10.75480
Pt     1.93611    -1.88573    10.82180
Pt     5.97162    -1.87474    10.78580
Pt    -6.24949     1.86512    10.39370
Pt    -2.11794     1.85887    10.92500
Pt     1.70158     1.91990    10.87470
Pt     5.82562     2.25609    10.71770
Pt    -5.91552     5.59010     9.27777
Pt    -2.30458     5.80421    10.61770
Pt     1.74495     5.90385    10.48330
Pt     5.57281     6.05327    10.15170
Ni    -6.43568   -10.29760    -4.33378
Ni    -2.65027   -11.53650    -4.67166
Ni     1.62374   -11.92030    -4.72856
Ni     5.52463   -10.81630    -4.14984
Ni    -6.51757   -11.31820    -2.04443
Ni    -1.43650   -10.48200    -1.76041
Ni     2.22403   -10.35600    -1.74479
Ni     5.24293   -11.56660    -2.03625
Ni    -6.29795   -11.71590     2.56028
Ni    -1.52482   -10.48840     1.68611
Ni     2.22480   -10.34340     1.71401
Ni     5.46654   -10.96000     2.00634
Ni    -6.14464   -10.98940     4.71198
Ni    -2.47013   -11.62010     4.89587
Ni     1.56113   -11.73770     4.80431
Ni     5.34723   -10.57890     4.42001
Ni    -6.46401    -7.42596    -8.14669
Ni    -2.07974    -8.30214    -8.27786
Ni     1.62458    -9.14533    -8.45273
Ni     5.61005    -8.03475    -8.12623
Ni    -9.93865    -7.23475    -5.26511
Ni    -5.64813    -7.80333    -4.30310
Ni    -1.37738    -7.02631    -5.32865
Ni     1.97192    -6.97915    -5.32911
Ni     5.45401    -6.80992    -5.29182
Ni     8.98168    -7.63004    -4.97805
Ni    -9.67280    -8.74300    -1.03899
Ni    -4.92230    -7.14979    -2.07630
Ni    -1.38688    -7.06731    -1.70564
Ni     2.11485    -6.95347    -1.72737
Ni     5.69804    -6.85752    -1.72116
Ni    10.26930    -7.82255    -1.10971
Ni    -8.74648    -7.21817     1.25788
Ni    -5.13415    -7.36650     1.58996
Ni    -1.62104    -7.07639     1.66095
Ni     1.91473    -7.10916     1.75757
Ni     5.58983    -6.94913     1.73287
Ni     9.02794    -5.28630     0.87957
Ni    -9.24775    -7.72566     4.56423
Ni    -5.15792    -7.34494     5.03760
Ni    -1.59219    -7.17998     5.06961
Ni     2.00950    -7.17148     5.25345
Ni     5.38966    -6.92581     5.31800
Ni     9.37064    -7.13594     4.82062
Ni    -6.05111    -7.75099     7.97272
Ni    -1.93498    -8.31566     8.44825
Ni     1.86075    -8.56319     8.28550
Ni     6.29311    -7.21994     8.23870
Pt    -2.07886    -4.10160   -12.31370
Pt     1.84878    -4.03153   -12.64480
Ni    -9.35860    -3.46128    -7.61178
Ni    -5.77345    -3.74104    -8.12741
Ni    -1.71539    -3.83972    -8.77806
Ni     1.97308    -3.59971    -8.93305
Ni     5.33637    -3.51771    -8.64352
Ni     8.91958    -4.41237    -8.06435
Ni    -9.17461    -4.18834    -4.53001
Ni    -5.29021    -3.68496    -5.59810
Ni    -1.65214    -3.63441    -5.39673
Ni     1.95080    -3.54528    -5.24082
Ni     5.36668    -3.57466    -5.41688
Ni     8.74646    -3.21182    -5.29908
Ni   -12.52030    -3.42087    -1.43110
Ni    -8.57127    -3.80947    -2.02176
Ni    -5.04092    -3.77538    -1.95683
Ni    -1.54110    -3.60294    -1.83549
Ni     2.00932    -3.55480    -1.81081
Ni     5.51190    -3.35029    -1.76849
Ni     8.83057    -3.25951    -1.80725
Ni    12.43710    -2.77224    -0.86069
Ni   -12.27360    -3.58874     0.92778
Ni    -8.71186    -3.94656     1.50826
Ni    -5.26514    -3.74533     1.64017
Ni    -1.67007    -3.51743     1.77347
Ni     1.82899    -3.43357     1.80143
Ni     5.37870    -3.37417     1.89132
Ni     8.67302    -3.25189     1.97969
Ni    12.54120    -3.10663     1.52382
Ni    -8.65520    -4.07014     5.08458
Ni    -5.10557    -3.72981     5.26863
Ni    -1.58116    -3.54093     5.25986
Ni     1.91339    -3.44471     5.37351
Ni     5.28876    -3.30814     5.41316
Ni     8.77534    -3.12703     5.42691
Ni    -9.42989    -4.05911     7.28970
Ni    -5.12830    -3.80240     8.47066
Ni    -1.63916    -3.75857     8.69479
Ni     1.88406    -3.61590     8.84417
Ni     5.41333    -3.51936     8.82505
Ni     9.44352    -3.59678     7.77819
Pt    -1.83794    -4.06133    12.38550
Pt     1.91313    -3.95245    12.73460
Pt    -6.02509     0.09353   -12.11830
Pt    -2.04356    -0.00419   -12.76080
Pt     1.95230     0.04783   -12.69710
Pt     5.93811     0.03389   -12.33080
Ni    -9.41782     0.61557    -7.44452
Ni    -5.31945     0.29096    -8.69151
Ni    -1.81918     0.14919    -8.87612
Ni     1.84067     0.06069    -8.89108
Ni     5.50816    -0.13937    -8.80310
Ni     9.22752    -0.14722    -7.88932
Ni   -12.51730     0.73642    -3.66187
Ni    -8.71664    -0.24834    -5.35110
Ni    -5.37169    -0.16026    -5.30139
Ni    -1.81003    -0.02341    -5.46580
Ni     1.76873     0.09029    -5.28059
Ni     5.24264     0.19236    -5.29835
Ni     8.89399     0.36059    -5.23151
Ni    12.19240    -0.53883    -4.47424
Ni   -12.92140     0.51658    -1.25319
Ni    -8.73598    -0.27885    -1.85223
Ni    -5.20536    -0.13255    -1.83642
Ni    -1.76788    -0.14660    -1.90738
Ni     1.71976    -0.02509    -1.70775
Ni     5.26283     0.10316    -1.72655
Ni     8.72047     0.18943    -1.70970
Ni    12.66550    -0.71730    -2.06609
Ni   -12.89010     0.28001     1.24012
Ni    -8.72985    -0.55325     1.70996
Ni    -5.25071    -0.33924     1.61767
Ni    -1.67955    -0.13978     1.66479
Ni     1.73079     0.02355     1.87302
Ni     5.29393     0.24027     1.86071
Ni     8.80167     0.06927     1.82051
Ni    12.83810     0.79362     1.82928
Ni   -12.59590     0.07698     3.72555
Ni    -8.69649    -0.45499     5.10883
Ni    -5.31143    -0.24719     5.20051
Ni    -1.66507    -0.08448     5.42056
Ni     1.77255     0.05515     5.49041
Ni     5.36042     0.05412     5.38398
Ni     8.86301     0.00937     5.50663
Ni    12.56190     0.76287     4.43126
Ni    -9.49148    -0.01326     7.35078
Ni    -5.41469    -0.22776     8.54391
Ni    -1.83829    -0.02527     8.94482
Ni     1.83927     0.05311     8.84646
Ni     5.52701     0.34140     8.91741
Ni     9.43665     0.37128     8.04457
Pt    -6.35154    -0.27540    12.05120
Pt    -2.12389    -0.06052    12.73960
Pt     1.88214    -0.04737    12.85120
Pt     5.89325     0.18697    12.60530
Pt    -2.13351     4.05808   -12.57940
Pt     1.85387     4.03186   -12.60610
Ni    -9.15990     4.60126    -7.07000
Ni    -5.42214     3.48272    -8.48151
Ni    -1.89371     3.68805    -8.74156
Ni     1.74422     3.69874    -8.84221
Ni     5.35196     3.69718    -8.58755
Ni     9.29257     3.92131    -7.74222
Ni    -8.83137     3.23350    -4.89574
Ni    -5.29954     3.48399    -5.13753
Ni    -1.74425     3.53773    -5.36692
Ni     1.68519     3.56129    -5.33705
Ni     5.17931     3.69243    -5.20512
Ni     8.59609     3.68164    -5.16535
Ni   -12.40490     4.50119    -0.94783
Ni    -8.92941     3.21295    -1.67373
Ni    -5.24731     3.33686    -1.73629
Ni    -1.72245     3.38182    -1.77735
Ni     1.74530     3.41777    -1.78775
Ni     5.18886     3.64426    -1.78033
Ni     8.77875     3.86884    -1.77680
Ni    12.69150     3.09119    -1.52816
Ni   -12.69180     4.12139     1.41017
Ni    -8.91914     3.10901     1.80165
Ni    -5.31063     3.19623     1.75897
Ni    -1.70367     3.38719     1.72355
Ni     1.72927     3.46329     1.81235
Ni     5.24958     3.52775     1.72953
Ni     8.74291     3.50375     1.78454
Ni    12.69750     2.84162     0.88281
Ni    -8.78897     2.93099     5.24966
Ni    -5.28596     3.12427     5.10667
Ni    -1.66097     3.35544     5.39517
Ni     1.77304     3.54180     5.40913
Ni     5.30255     3.54848     5.27954
Ni     9.00618     3.48696     5.35729
Ni    -9.24508     3.92757     7.30953
Ni    -5.37190     3.21299     8.49544
Ni    -1.85463     3.43383     8.82706
Ni     1.76379     3.59056     8.93980
Ni     5.30398     3.61037     8.86614
Ni     8.88780     4.41076     8.53404
Pt    -2.33164     3.86089    12.69770
Pt     1.63783     4.02509    12.70870
Ni    -5.98061     7.89560    -7.76090
Ni    -1.95214     8.12672    -8.62072
Ni     1.92989     8.04678    -8.61120
Ni     6.08864     7.57949    -8.08644
Ni    -9.15251     8.50869    -4.31683
Ni    -5.39803     7.13039    -5.15592
Ni    -1.87393     7.01913    -5.17339
Ni     1.73357     7.09056    -5.09491
Ni     5.23223     7.26468    -5.13265
Ni     9.30236     7.46325    -4.77292
Ni    -8.83188     6.60037    -1.50981
Ni    -5.36737     6.91360    -1.84727
Ni    -1.89105     6.94794    -1.85937
Ni     1.64794     7.04541    -1.66196
Ni     5.21085     7.29230    -1.72718
Ni     9.67305     8.45348    -0.85620
Ni    -8.83333     6.63438     1.71871
Ni    -5.19238     6.67327     1.62731
Ni    -1.68568     6.78250     1.76443
Ni     1.68095     7.05018     1.67902
Ni     5.28963     7.09270     1.89553
Ni    10.11040     7.65078     1.22015
Ni    -9.32191     7.57050     4.04321
Ni    -5.24684     6.68933     5.17544
Ni    -1.76836     6.85637     5.25084
Ni     1.63692     6.91164     5.31255
Ni     5.29789     6.99394     5.34090
Ni     9.02375     7.52880     5.06326
Ni    -6.03995     7.63059     7.42748
Ni    -2.22941     8.64982     8.20548
Ni     1.66615     8.42521     8.44372
Ni     5.58729     7.87408     8.04796
Ni    -5.42244    11.12780    -4.57428
Ni    -1.93887    11.73420    -5.53677
Ni     1.93615    11.41260    -5.20819
Ni     5.96133    10.85190    -4.63630
Ni    -4.39540    12.35120    -2.94625
Ni    -1.87953    10.47830    -1.68681
Ni     1.69748    10.51530    -1.58492
Ni     5.55479    11.60150    -2.48780
Ni    -5.42469    11.53720     1.37099
Ni    -1.86332    10.37040     1.87632
Ni     1.81191    10.68540     2.12607
Ni     7.11027    11.00580     0.58577
Ni    -5.87921    10.80030     3.60729
Ni    -2.06085    11.69320     4.66814
Ni     1.82585    11.74800     5.07684
Ni     5.79654    10.82810     4.33696
Ni   -11.28460    -5.27445    -4.80066
Ni   -11.93790    -1.41812    -4.91424
Ni   -11.39970     2.65805    -4.34851
Ni   -10.53510     6.72095    -3.80945
Ni   -12.36050    -5.51230    -2.70435
Ni   -10.39400    -2.14276    -1.81060
Ni   -10.48960     1.29915    -1.74856
Ni   -11.22980     6.42444    -1.72127
Ni   -11.23540    -5.60524     1.72212
Ni   -10.39320    -2.46126     1.72292
Ni   -10.66850     1.23817     1.87261
Ni   -10.48400     4.86897     1.96673
Ni   -10.84590    -6.02757     4.18200
Ni   -11.70430    -1.95940     4.48449
Ni   -12.00840     2.25286     4.85024
Ni   -10.94460     5.96519     4.26520
Ni    -8.07436    -5.60104    -8.11515
Ni    -8.60165    -1.48274    -8.38535
Ni    -8.98464     2.47386    -8.45603
Ni    -7.70155     6.26031    -7.67827
Ni    -8.08246    -8.61341    -4.73877
Ni    -7.54939    -6.16602    -4.44511
Ni    -7.01028    -1.99389    -5.30057
Ni    -7.05985     1.57042    -5.03346
Ni    -7.15575     5.45276    -5.28239
Ni    -7.26138     9.77439    -4.40019
Ni    -8.04628   -10.23510    -0.43744
Ni    -6.75049    -5.43668    -2.06037
Ni    -6.86783    -2.11905    -1.85288
Ni    -7.02001     1.58415    -1.69177
Ni    -7.17107     4.98119    -1.68226
Ni    -7.02055     8.60263    -1.60137
Ni    -6.81936    -9.05440     1.27639
Ni    -6.96532    -5.61896     1.54505
Ni    -7.01528    -2.11038     1.57221
Ni    -7.02668     1.35731     1.64320
Ni    -7.07931     5.03095     1.87656
Ni    -6.91422     8.42859     1.62545
Ni    -7.87504    -9.46697     4.98263
Ni    -6.83677    -5.73777     5.03012
Ni    -7.01003    -2.20819     5.19630
Ni    -7.07428     1.33853     5.19898
Ni    -7.06258     4.94876     5.18706
Ni    -7.66061     9.27903     3.91292
Ni    -7.70390    -5.93915     7.83247
Ni    -8.54354    -2.07328     8.03162
Ni    -8.26597     1.76526     8.34714
Ni    -7.71671     5.85183     7.48894
Pt    -4.21150    -1.88584   -12.35590
Pt    -4.00407     1.97613   -12.52170
Ni    -4.38107    -9.33993    -7.73060
Ni    -4.15089    -5.50296    -8.02080
Ni    -3.51748    -1.73012    -8.84293
Ni    -3.57025     1.95733    -8.77578
Ni    -3.59195     5.29304    -8.54300
Ni    -3.91667     9.16461    -7.73758
Ni    -3.54887    -9.50991    -4.16183
Ni    -3.35846    -5.34428    -5.46108
Ni    -3.50930    -1.82364    -5.46360
Ni    -3.52455     1.69397    -5.24761
Ni    -3.64628     5.29303    -5.21844
Ni    -3.43442     8.89618    -5.24092
Ni    -4.64269   -12.26910    -1.10339
Ni    -3.20164    -8.68142    -1.93023
Ni    -3.26601    -5.30933    -1.92247
Ni    -3.40415    -1.97944    -1.89923
Ni    -3.38080     1.70758    -1.74400
Ni    -3.50937     5.09039    -1.78602
Ni    -3.52959     8.77732    -1.63637
Ni    -2.81152    12.70530    -1.36105
Ni    -4.44965   -12.24050     1.33480
Ni    -3.23921    -8.92390     1.57993
Ni    -3.34191    -5.37246     1.66520
Ni    -3.39788    -1.89584     1.60671
Ni    -3.50683     1.60435     1.64751
Ni    -3.57738     5.07813     1.78967
Ni    -3.43184     8.56279     1.73587
Ni    -3.36057    12.51010     0.90727
Ni    -3.19699    -8.98115     5.02388
Ni    -3.36910    -5.42980     5.19726
Ni    -3.32124    -1.87915     5.12912
Ni    -3.44108     1.54547     5.17019
Ni    -3.44627     5.07494     5.33255
Ni    -3.48219     8.47934     5.13932
Ni    -4.15313    -9.32370     7.71947
Ni    -3.44625    -5.57111     8.49390
Ni    -3.52211    -2.02578     8.80300
Ni    -3.70995     1.52135     8.70071
Ni    -3.63552     5.06181     8.51448
Ni    -4.34001     9.23740     7.18262
Pt    -4.02526    -2.16231    12.55910
Pt    -4.27200     1.68543    12.52080
Pt    -0.20470    -6.11064   -12.12840
Pt    -0.13501    -2.03853   -12.68210
Pt    -0.02510     1.97861   -12.67530
Pt    -0.01948     5.97510   -12.33070
Ni    -0.40798    -9.67158    -7.47256
Ni     0.14168    -5.36467    -8.66108
Ni     0.02285    -1.67651    -8.85494
Ni    -0.02746     1.76931    -8.86303
Ni    -0.07061     5.45607    -8.66566
Ni     0.00339     9.25273    -8.06876
Ni    -0.69586   -12.43850    -3.62076
Ni     0.32987    -8.88098    -5.25936
Ni     0.25229    -5.25543    -5.35341
Ni     0.10883    -1.82444    -5.41676
Ni    -0.08635     1.72157    -5.43402
Ni    -0.04057     5.42078    -5.26651
Ni    -0.04797     8.75339    -5.12505
Ni    -0.06383    12.61600    -4.52866
Ni    -0.53137   -12.79510    -1.35642
Ni     0.42212    -8.70612    -1.80337
Ni     0.28630    -5.27246    -1.73845
Ni     0.01041    -1.73326    -1.81179
Ni     0.00753     1.66900    -1.84105
Ni    -0.06560     5.15461    -1.81215
Ni    -0.06728     8.76514    -1.61542
Ni     1.29150    12.68600    -0.46126
Ni    -0.45742   -12.64570     1.19358
Ni     0.36141    -8.83473     1.61577
Ni     0.21869    -5.22201     1.79698
Ni     0.14021    -1.76430     1.63618
Ni    -0.09658     1.59343     1.81532
Ni     0.02651     5.21369     1.83517
Ni    -0.01863     8.73170     1.86417
Ni     0.53862    12.82890     1.65145
Ni    -0.51839   -12.51530     3.61762
Ni     0.41198    -8.76163     5.32708
Ni     0.20470    -5.35089     5.29239
Ni     0.07677    -1.75256     5.34935
Ni     0.03655     1.66799     5.48940
Ni     0.07520     5.28245     5.38348
Ni    -0.00853     8.61831     5.33528
Ni    -0.08096    12.64930     4.05920
Ni    -0.11955    -9.43152     7.61902
Ni     0.00998    -5.39058     8.67793
Ni     0.10585    -1.92870     8.82109
Ni    -0.02427     1.80355     8.89973
Ni    -0.27222     5.23135     8.81701
Ni    -0.25545     9.41274     7.61391
Pt     0.06099    -6.14094    12.35230
Pt    -0.06868    -2.07568    12.70670
Pt    -0.18922     1.93389    12.85280
Pt    -0.30035     6.06755    12.34290
Pt     3.89505    -1.97421   -12.56260
Pt     3.85811     1.94686   -12.45540
Ni     3.68148    -9.47197    -7.46129
Ni     3.62043    -5.23318    -8.64766
Ni     3.56546    -1.75057    -8.87744
Ni     3.55787     1.92855    -8.80084
Ni     3.59652     5.46170    -8.43774
Ni     4.07772     9.27323    -7.84783
Ni     3.73473    -8.78754    -5.16724
Ni     3.58892    -5.24311    -5.42353
Ni     3.56901    -1.55188    -5.38648
Ni     3.49045     1.79982    -5.24057
Ni     3.42773     5.46331    -5.19592
Ni     3.33904     8.98423    -4.97546
Ni     3.32633   -12.59590    -1.23712
Ni     3.98088    -8.75995    -1.66890
Ni     3.79262    -5.11798    -1.70947
Ni     3.64885    -1.66868    -1.93084
Ni     3.52862     1.77746    -1.74385
Ni     3.54887     5.33217    -1.73142
Ni     3.44337     8.89645    -1.59115
Ni     3.42377    12.23590    -1.41774
Ni     3.35958   -12.43450     1.26259
Ni     3.99020    -8.71201     1.65873
Ni     3.62912    -5.36935     1.77439
Ni     3.54096    -1.67324     1.77989
Ni     3.47684     1.76738     1.78742
Ni     3.58069     5.28680     1.78710
Ni     3.45536     8.77462     1.78082
Ni     5.38030    11.33220     2.09788
Ni     3.78161    -8.73012     5.24948
Ni     3.53078    -5.22487     5.29157
Ni     3.50182    -1.62153     5.44067
Ni     3.60383     1.77606     5.38275
Ni     3.48068     5.30578     5.36507
Ni     3.36880     8.57997     5.20629
Ni     3.85986    -9.45423     7.56304
Ni     3.54686    -5.21054     8.66965
Ni     3.70923    -1.73687     8.99180
Ni     3.60420     1.91783     8.94294
Ni     3.57050     5.32766     8.72386
Ni     3.65700     9.37080     7.58755
Pt     3.88349    -1.77289    12.79410
Pt     3.72487     2.04660    12.66930
Ni     7.40842    -6.47021    -8.36919
Ni     8.14224    -2.09438    -8.91812
Ni     8.30802     1.91635    -8.56243
Ni     7.73714     5.84365    -8.05296
Ni     7.43407    -9.35187    -4.65476
Ni     7.19536    -5.09229    -5.40215
Ni     7.08915    -1.53528    -5.27709
Ni     6.96394     1.94500    -5.18938
Ni     6.87922     5.60109    -5.11533
Ni     7.77861     9.37353    -4.84935
Ni     8.26494    -9.12503    -0.75531
Ni     7.30359    -5.19754    -1.60663
Ni     7.10594    -1.63671    -1.61805
Ni     6.98075     1.91574    -1.65226
Ni     6.98415     5.41102    -1.79802
Ni     6.95044     8.94892    -1.50472
Ni     7.71965    -9.60141     1.36618
Ni     7.01707    -5.09222     1.92247
Ni     6.92824    -1.47418     1.77395
Ni     6.96523     1.80490     1.83502
Ni     7.13081     5.37821     1.77281
Ni     8.79248     9.52612     0.99752
Ni     7.72512    -8.87174     5.10586
Ni     7.09200    -5.07296     5.38439
Ni     6.94916    -1.57048     5.38653
Ni     7.03157     1.79314     5.56313
Ni     7.09177     5.31380     5.24614
Ni     7.37476     9.10833     4.65319
Ni     8.01756    -5.52695     8.07804
Ni     8.59280    -1.62321     8.80942
Ni     7.99961     2.05090     8.79884
Ni     7.27552     6.17207     8.41061
Ni    10.82090    -6.43536    -5.51071
Ni    11.21250    -2.44198    -5.45398
Ni    11.54760     1.57807    -5.17505
Ni    10.81140     5.58361    -4.52049
Ni    11.87070    -4.62950    -2.26061
Ni    10.52500    -1.62241    -1.65606
Ni    10.55870     2.03509    -1.78305
Ni    11.82010     5.18672    -2.45628
Ni    11.77550    -5.10129     2.27282
Ni    10.59260    -1.65716     1.75467
Ni    10.55910     1.81988     1.73844
Ni    11.33420     5.43076     1.58030
Ni    10.91670    -5.43893     4.39553
Ni    11.67580    -1.40827     5.12965
Ni    11.25180     2.75752     5.26411
Ni    10.55430     6.00388     5.27305
