862

Pt     0.80250     0.80250     0.80250
Pt    -0.80250    -0.80250    -0.80250
Pt    -0.80250    -0.80250     2.40750
Pt     2.40750    -0.80250    -0.80250
Pt    -0.80250     2.40750    -0.80250
Pt     0.80250    -2.40750     0.80250
Pt    -2.40750     0.80250     0.80250
Pt     0.80250     0.80250    -2.40750
Pt     2.40750    -0.80250     2.40750
Pt    -0.80250     2.40750     2.40750
Pt     2.40750     2.40750    -0.80250
Pt    -2.40750    -2.40750     0.80250
Pt     0.80250    -2.40750    -2.40750
Pt    -2.40750     0.80250    -2.40750
Pt     2.40750     2.40750     2.40750
Pt     0.80250     0.80250     4.01250
Pt     4.01250     0.80250     0.80250
Pt     0.80250     4.01250     0.80250
Pt    -0.80250    -4.01250    -0.80250
Pt    -4.01250    -0.80250    -0.80250
Pt    -0.80250    -0.80250    -4.01250
Pt    -2.40750    -2.40750    -2.40750
Pt     0.80250    -2.40750     4.01250
Pt    -2.40750     0.80250     4.01250
Pt     4.01250    -2.40750     0.80250
Pt    -2.40750     4.01250     0.80250
Pt     4.01250     0.80250    -2.40750
Pt     0.80250     4.01250    -2.40750
Pt    -0.80250    -4.01250     2.40750
Pt    -4.01250    -0.80250     2.40750
Pt     2.40750    -4.01250    -0.80250
Pt    -4.01250     2.40750    -0.80250
Pt     2.40750    -0.80250    -4.01250
Pt    -0.80250     2.40750    -4.01250
Pt     2.40750    -4.01250     2.40750
Pt    -4.01250     2.40750     2.40750
Pt    -2.40750    -2.40750     4.01250
Pt     2.40750     2.40750    -4.01250
Pt     4.01250    -2.40750    -2.40750
Pt    -2.40750     4.01250    -2.40750
Pt     4.01250     0.80250     4.01250
Pt     0.80250     4.01250     4.01250
Pt     4.01250     4.01250     0.80250
Pt    -0.80250    -0.80250     5.61750
Pt     5.61750    -0.80250    -0.80250
Pt    -0.80250     5.61750    -0.80250
Pt     0.80250    -5.61750     0.80250
Pt    -5.61750     0.80250     0.80250
Pt     0.80250     0.80250    -5.61750
Pt    -4.01250    -4.01250    -0.80250
Pt    -0.80250    -4.01250    -4.01250
Pt    -4.01250    -0.80250    -4.01250
Pt     2.40750    -0.80250     5.61750
Pt    -0.80250     2.40750     5.61750
Pt     5.61750    -0.80250     2.40750
Pt    -0.80250     5.61750     2.40750
Pt     4.01250    -2.40750     4.01250
Pt    -2.40750     4.01250     4.01250
Pt     5.61750     2.40750    -0.80250
Pt     2.40750     5.61750    -0.80250
Pt     4.01250     4.01250    -2.40750
Pt    -4.01250    -4.01250     2.40750
Pt    -2.40750    -5.61750     0.80250
Pt    -5.61750    -2.40750     0.80250
Pt     2.40750    -4.01250    -4.01250
Pt    -4.01250     2.40750    -4.01250
Pt     0.80250    -5.61750    -2.40750
Pt    -5.61750     0.80250    -2.40750
Pt     0.80250    -2.40750    -5.61750
Pt    -2.40750     0.80250    -5.61750
Pt     2.40750     2.40750     5.61750
Pt     5.61750     2.40750     2.40750
Pt     2.40750     5.61750     2.40750
Pt    -2.40750    -5.61750    -2.40750
Pt    -5.61750    -2.40750    -2.40750
Pt    -2.40750    -2.40750    -5.61750
Pt     4.01250     4.01250     4.01250
Pt    -0.80250    -4.01250     5.61750
Pt    -4.01250    -0.80250     5.61750
Pt     0.80250    -5.61750     4.01250
Pt    -5.61750     0.80250     4.01250
Pt     5.61750    -4.01250    -0.80250
Pt    -4.01250     5.61750    -0.80250
Pt     4.01250    -5.61750     0.80250
Pt    -5.61750     4.01250     0.80250
Pt     5.61750    -0.80250    -4.01250
Pt    -0.80250     5.61750    -4.01250
Pt     4.01250     0.80250    -5.61750
Pt     0.80250     4.01250    -5.61750
Pt    -4.01250    -4.01250    -4.01250
Pt     0.80250     0.80250     7.22250
Pt     7.22250     0.80250     0.80250
Pt     0.80250     7.22250     0.80250
Pt     2.40750    -4.01250     5.61750
Pt    -4.01250     2.40750     5.61750
Pt     5.61750    -4.01250     2.40750
Pt    -4.01250     5.61750     2.40750
Pt     5.61750     2.40750    -4.01250
Pt     2.40750     5.61750    -4.01250
Pt    -2.40750    -5.61750     4.01250
Pt    -5.61750    -2.40750     4.01250
Pt     4.01250    -5.61750    -2.40750
Pt    -5.61750     4.01250    -2.40750
Pt     4.01250    -2.40750    -5.61750
Pt    -2.40750     4.01250    -5.61750
Pt    -0.80250    -7.22250    -0.80250
Pt    -7.22250    -0.80250    -0.80250
Pt    -0.80250    -0.80250    -7.22250
Pt     0.80250    -2.40750     7.22250
Pt    -2.40750     0.80250     7.22250
Pt     7.22250    -2.40750     0.80250
Pt    -2.40750     7.22250     0.80250
Pt     7.22250     0.80250    -2.40750
Pt     0.80250     7.22250    -2.40750
Pt    -0.80250    -7.22250     2.40750
Pt    -7.22250    -0.80250     2.40750
Pt     2.40750    -7.22250    -0.80250
Pt    -7.22250     2.40750    -0.80250
Pt     2.40750    -0.80250    -7.22250
Pt    -0.80250     2.40750    -7.22250
Pt     5.61750    -0.80250     5.61750
Pt    -0.80250     5.61750     5.61750
Pt     5.61750     5.61750    -0.80250
Pt    -2.40750    -2.40750     7.22250
Pt     4.01250    -5.61750     4.01250
Pt    -5.61750     4.01250     4.01250
Pt     7.22250    -2.40750    -2.40750
Pt    -2.40750     7.22250    -2.40750
Pt    -4.01250    -4.01250     5.61750
Pt     4.01250     4.01250    -5.61750
Pt     2.40750    -7.22250     2.40750
Pt    -7.22250     2.40750     2.40750
Pt     5.61750    -4.01250    -4.01250
Pt    -4.01250     5.61750    -4.01250
Pt     2.40750     2.40750    -7.22250
Pt    -5.61750    -5.61750     0.80250
Pt     0.80250    -5.61750    -5.61750
Pt    -5.61750     0.80250    -5.61750
Pt     5.61750     2.40750     5.61750
Pt     2.40750     5.61750     5.61750
Pt     4.01250     0.80250     7.22250
Pt     0.80250     4.01250     7.22250
Pt     5.61750     5.61750     2.40750
Pt     7.22250     0.80250     4.01250
Pt     0.80250     7.22250     4.01250
Pt     7.22250     4.01250     0.80250
Pt     4.01250     7.22250     0.80250
Pt    -4.01250    -7.22250    -0.80250
Pt    -7.22250    -4.01250    -0.80250
Pt    -0.80250    -7.22250    -4.01250
Pt    -7.22250    -0.80250    -4.01250
Pt    -5.61750    -5.61750    -2.40750
Pt    -0.80250    -4.01250    -7.22250
Pt    -4.01250    -0.80250    -7.22250
Pt    -2.40750    -5.61750    -5.61750
Pt    -5.61750    -2.40750    -5.61750
Pt     4.01250    -2.40750     7.22250
Pt    -2.40750     4.01250     7.22250
Pt     7.22250    -2.40750     4.01250
Pt    -2.40750     7.22250     4.01250
Pt     7.22250     4.01250    -2.40750
Pt     4.01250     7.22250    -2.40750
Pt    -4.01250    -7.22250     2.40750
Pt    -7.22250    -4.01250     2.40750
Pt     2.40750    -7.22250    -4.01250
Pt    -7.22250     2.40750    -4.01250
Pt     2.40750    -4.01250    -7.22250
Pt    -4.01250     2.40750    -7.22250
Pt    -0.80250    -0.80250     8.82750
Pt     5.61750    -4.01250     5.61750
Pt    -4.01250     5.61750     5.61750
Pt     8.82750    -0.80250    -0.80250
Pt    -0.80250     8.82750    -0.80250
Pt     5.61750     5.61750    -4.01250
Pt    -5.61750    -5.61750     4.01250
Pt     0.80250    -8.82750     0.80250
Pt    -8.82750     0.80250     0.80250
Pt     4.01250    -5.61750    -5.61750
Pt    -5.61750     4.01250    -5.61750
Pt     0.80250     0.80250    -8.82750
Pt     4.01250     4.01250     7.22250
Pt     7.22250     4.01250     4.01250
Pt     4.01250     7.22250     4.01250
Pt     2.40750    -0.80250     8.82750
Pt    -0.80250     2.40750     8.82750
Pt     8.82750    -0.80250     2.40750
Pt    -0.80250     8.82750     2.40750
Pt     8.82750     2.40750    -0.80250
Pt     2.40750     8.82750    -0.80250
Pt     0.80250    -5.61750     7.22250
Pt    -5.61750     0.80250     7.22250
Pt     7.22250    -5.61750     0.80250
Pt    -5.61750     7.22250     0.80250
Pt    -0.80250    -7.22250     5.61750
Pt    -7.22250    -0.80250     5.61750
Pt     7.22250     0.80250    -5.61750
Pt     0.80250     7.22250    -5.61750
Pt     5.61750    -7.22250    -0.80250
Pt    -7.22250     5.61750    -0.80250
Pt     5.61750    -0.80250    -7.22250
Pt    -0.80250     5.61750    -7.22250
Pt    -2.40750    -8.82750     0.80250
Pt    -8.82750    -2.40750     0.80250
Pt     0.80250    -8.82750    -2.40750
Pt    -8.82750     0.80250    -2.40750
Pt     0.80250    -2.40750    -8.82750
Pt    -2.40750     0.80250    -8.82750
Pt    -4.01250    -7.22250    -4.01250
Pt    -7.22250    -4.01250    -4.01250
Pt    -4.01250    -4.01250    -7.22250
Pt     2.40750     2.40750     8.82750
Pt     8.82750     2.40750     2.40750
Pt     2.40750     8.82750     2.40750
Pt     2.40750    -7.22250     5.61750
Pt    -7.22250     2.40750     5.61750
Pt    -2.40750    -5.61750     7.22250
Pt    -5.61750    -2.40750     7.22250
Pt     5.61750    -7.22250     2.40750
Pt    -7.22250     5.61750     2.40750
Pt     7.22250    -5.61750    -2.40750
Pt    -5.61750     7.22250    -2.40750
Pt     5.61750     2.40750    -7.22250
Pt     2.40750     5.61750    -7.22250
Pt     7.22250    -2.40750    -5.61750
Pt    -2.40750     7.22250    -5.61750
Pt    -2.40750    -8.82750    -2.40750
Pt    -8.82750    -2.40750    -2.40750
Pt    -2.40750    -2.40750    -8.82750
Pt     5.61750     5.61750     5.61750
Pt    -0.80250    -4.01250     8.82750
Pt    -4.01250    -0.80250     8.82750
Pt     8.82750    -4.01250    -0.80250
Pt    -4.01250     8.82750    -0.80250
Pt     8.82750    -0.80250    -4.01250
Pt    -0.80250     8.82750    -4.01250
Pt     0.80250    -8.82750     4.01250
Pt    -8.82750     0.80250     4.01250
Pt     4.01250    -8.82750     0.80250
Pt    -8.82750     4.01250     0.80250
Pt     4.01250     0.80250    -8.82750
Pt     0.80250     4.01250    -8.82750
Pt    -5.61750    -5.61750    -5.61750
Pt     2.40750    -4.01250     8.82750
Pt    -4.01250     2.40750     8.82750
Pt     4.01250    -5.61750     7.22250
Pt    -5.61750     4.01250     7.22250
Pt     8.82750    -4.01250     2.40750
Pt    -4.01250     8.82750     2.40750
Pt     7.22250    -5.61750     4.01250
Pt    -5.61750     7.22250     4.01250
Pt     8.82750     2.40750    -4.01250
Pt     2.40750     8.82750    -4.01250
Pt     7.22250     4.01250    -5.61750
Pt     4.01250     7.22250    -5.61750
Pt    -4.01250    -7.22250     5.61750
Pt    -7.22250    -4.01250     5.61750
Pt    -2.40750    -8.82750     4.01250
Pt    -8.82750    -2.40750     4.01250
Pt     5.61750    -7.22250    -4.01250
Pt    -7.22250     5.61750    -4.01250
Pt     4.01250    -8.82750    -2.40750
Pt    -8.82750     4.01250    -2.40750
Pt     5.61750    -4.01250    -7.22250
Pt    -4.01250     5.61750    -7.22250
Pt     4.01250    -2.40750    -8.82750
Pt    -2.40750     4.01250    -8.82750
Pt     7.22250     0.80250     7.22250
Pt     0.80250     7.22250     7.22250
Pt     7.22250     7.22250     0.80250
Pt    -7.22250    -7.22250    -0.80250
Pt    -0.80250    -7.22250    -7.22250
Pt    -7.22250    -0.80250    -7.22250
Pt     5.61750    -0.80250     8.82750
Pt    -0.80250     5.61750     8.82750
Pt     0.80250     0.80250    10.43250
Pt     8.82750    -0.80250     5.61750
Pt    -0.80250     8.82750     5.61750
Pt     7.22250    -2.40750     7.22250
Pt    -2.40750     7.22250     7.22250
Pt     8.82750     5.61750    -0.80250
Pt     5.61750     8.82750    -0.80250
Pt    10.43250     0.80250     0.80250
Pt     0.80250    10.43250     0.80250
Pt     7.22250     7.22250    -2.40750
Pt    -4.01250    -4.01250     8.82750
Pt     4.01250    -8.82750     4.01250
Pt    -8.82750     4.01250     4.01250
Pt     8.82750    -4.01250    -4.01250
Pt    -4.01250     8.82750    -4.01250
Pt     4.01250     4.01250    -8.82750
Pt    -7.22250    -7.22250     2.40750
Pt    -0.80250   -10.43250    -0.80250
Pt   -10.43250    -0.80250    -0.80250
Pt    -5.61750    -8.82750     0.80250
Pt    -8.82750    -5.61750     0.80250
Pt     2.40750    -7.22250    -7.22250
Pt    -7.22250     2.40750    -7.22250
Pt     0.80250    -8.82750    -5.61750
Pt    -8.82750     0.80250    -5.61750
Pt    -0.80250    -0.80250   -10.43250
Pt     0.80250    -5.61750    -8.82750
Pt    -5.61750     0.80250    -8.82750
Pt     5.61750     2.40750     8.82750
Pt     2.40750     5.61750     8.82750
Pt     8.82750     2.40750     5.61750
Pt     2.40750     8.82750     5.61750
Pt     8.82750     5.61750     2.40750
Pt     5.61750     8.82750     2.40750
Pt     0.80250    -2.40750    10.43250
Pt    -2.40750     0.80250    10.43250
Pt    10.43250    -2.40750     0.80250
Pt    -2.40750    10.43250     0.80250
Pt    10.43250     0.80250    -2.40750
Pt     0.80250    10.43250    -2.40750
Pt     5.61750    -7.22250     5.61750
Pt    -7.22250     5.61750     5.61750
Pt     5.61750     5.61750    -7.22250
Pt    -5.61750    -5.61750     7.22250
Pt     7.22250    -5.61750    -5.61750
Pt    -5.61750     7.22250    -5.61750
Pt    -0.80250   -10.43250     2.40750
Pt   -10.43250    -0.80250     2.40750
Pt     2.40750   -10.43250    -0.80250
Pt   -10.43250     2.40750    -0.80250
Pt     2.40750    -0.80250   -10.43250
Pt    -0.80250     2.40750   -10.43250
Pt    -5.61750    -8.82750    -2.40750
Pt    -8.82750    -5.61750    -2.40750
Pt    -2.40750    -8.82750    -5.61750
Pt    -8.82750    -2.40750    -5.61750
Pt    -2.40750    -5.61750    -8.82750
Pt    -5.61750    -2.40750    -8.82750
Pt     7.22250     4.01250     7.22250
Pt     4.01250     7.22250     7.22250
Pt     7.22250     7.22250     4.01250
Pt    -2.40750    -2.40750    10.43250
Pt    10.43250    -2.40750    -2.40750
Pt    -2.40750    10.43250    -2.40750
Pt     2.40750   -10.43250     2.40750
Pt   -10.43250     2.40750     2.40750
Pt     2.40750     2.40750   -10.43250
Pt    -7.22250    -7.22250    -4.01250
Pt    -4.01250    -7.22250    -7.22250
Pt    -7.22250    -4.01250    -7.22250
Pt     4.01250     0.80250    10.43250
Pt     0.80250     4.01250    10.43250
Pt    10.43250     0.80250     4.01250
Pt     0.80250    10.43250     4.01250
Pt    10.43250     4.01250     0.80250
Pt     4.01250    10.43250     0.80250
Pt     5.61750    -4.01250     8.82750
Pt    -4.01250     5.61750     8.82750
Pt     8.82750    -4.01250     5.61750
Pt    -4.01250     8.82750     5.61750
Pt     8.82750     5.61750    -4.01250
Pt     5.61750     8.82750    -4.01250
Pt    -5.61750    -8.82750     4.01250
Pt    -8.82750    -5.61750     4.01250
Pt     4.01250    -8.82750    -5.61750
Pt    -8.82750     4.01250    -5.61750
Pt     4.01250    -5.61750    -8.82750
Pt    -5.61750     4.01250    -8.82750
Pt    -4.01250   -10.43250    -0.80250
Pt   -10.43250    -4.01250    -0.80250
Pt    -0.80250   -10.43250    -4.01250
Pt   -10.43250    -0.80250    -4.01250
Pt    -0.80250    -4.01250   -10.43250
Pt    -4.01250    -0.80250   -10.43250
Pt     4.01250    -2.40750    10.43250
Pt    -2.40750     4.01250    10.43250
Pt    10.43250    -2.40750     4.01250
Pt    -2.40750    10.43250     4.01250
Pt    10.43250     4.01250    -2.40750
Pt     4.01250    10.43250    -2.40750
Pt    -0.80250    -7.22250     8.82750
Pt    -7.22250    -0.80250     8.82750
Pt     0.80250    -8.82750     7.22250
Pt    -8.82750     0.80250     7.22250
Pt     8.82750    -7.22250    -0.80250
Pt    -7.22250     8.82750    -0.80250
Pt     7.22250    -8.82750     0.80250
Pt    -8.82750     7.22250     0.80250
Pt     8.82750    -0.80250    -7.22250
Pt    -0.80250     8.82750    -7.22250
Pt     7.22250     0.80250    -8.82750
Pt     0.80250     7.22250    -8.82750
Pt    -4.01250   -10.43250     2.40750
Pt   -10.43250    -4.01250     2.40750
Pt     2.40750   -10.43250    -4.01250
Pt   -10.43250     2.40750    -4.01250
Pt     2.40750    -4.01250   -10.43250
Pt    -4.01250     2.40750   -10.43250
Pt     7.22250    -5.61750     7.22250
Pt    -5.61750     7.22250     7.22250
Pt     2.40750    -7.22250     8.82750
Pt    -7.22250     2.40750     8.82750
Pt     7.22250     7.22250    -5.61750
Pt     8.82750    -7.22250     2.40750
Pt    -7.22250     8.82750     2.40750
Pt     8.82750     2.40750    -7.22250
Pt     2.40750     8.82750    -7.22250
Pt    -2.40750    -8.82750     7.22250
Pt    -8.82750    -2.40750     7.22250
Pt     7.22250    -8.82750    -2.40750
Pt    -8.82750     7.22250    -2.40750
Pt    -7.22250    -7.22250     5.61750
Pt     7.22250    -2.40750    -8.82750
Pt    -2.40750     7.22250    -8.82750
Pt     5.61750    -7.22250    -7.22250
Pt    -7.22250     5.61750    -7.22250
Pt     5.61750     5.61750     8.82750
Pt     4.01250     4.01250    10.43250
Pt     8.82750     5.61750     5.61750
Pt     5.61750     8.82750     5.61750
Pt    10.43250     4.01250     4.01250
Pt     4.01250    10.43250     4.01250
Pt     0.80250    -5.61750    10.43250
Pt    -5.61750     0.80250    10.43250
Pt    10.43250    -5.61750     0.80250
Pt    -5.61750    10.43250     0.80250
Pt    10.43250     0.80250    -5.61750
Pt     0.80250    10.43250    -5.61750
Pt    -0.80250   -10.43250     5.61750
Pt   -10.43250    -0.80250     5.61750
Pt     5.61750   -10.43250    -0.80250
Pt   -10.43250     5.61750    -0.80250
Pt     5.61750    -0.80250   -10.43250
Pt    -0.80250     5.61750   -10.43250
Pt    -4.01250   -10.43250    -4.01250
Pt   -10.43250    -4.01250    -4.01250
Pt    -5.61750    -8.82750    -5.61750
Pt    -8.82750    -5.61750    -5.61750
Pt    -4.01250    -4.01250   -10.43250
Pt    -5.61750    -5.61750    -8.82750
Pt    -0.80250    -0.80250    12.03750
Pt    12.03750    -0.80250    -0.80250
Pt    -0.80250    12.03750    -0.80250
Pt    -2.40750    -5.61750    10.43250
Pt    -5.61750    -2.40750    10.43250
Pt     4.01250    -8.82750     7.22250
Pt    -8.82750     4.01250     7.22250
Pt     7.22250    -8.82750     4.01250
Pt    -8.82750     7.22250     4.01250
Pt    -4.01250    -7.22250     8.82750
Pt    -7.22250    -4.01250     8.82750
Pt    10.43250    -5.61750    -2.40750
Pt    -5.61750    10.43250    -2.40750
Pt     2.40750   -10.43250     5.61750
Pt   -10.43250     2.40750     5.61750
Pt    10.43250    -2.40750    -5.61750
Pt    -2.40750    10.43250    -5.61750
Pt     5.61750   -10.43250     2.40750
Pt   -10.43250     5.61750     2.40750
Pt     7.22250     4.01250    -8.82750
Pt     4.01250     7.22250    -8.82750
Pt     8.82750    -7.22250    -4.01250
Pt    -7.22250     8.82750    -4.01250
Pt     8.82750    -4.01250    -7.22250
Pt    -4.01250     8.82750    -7.22250
Pt     5.61750     2.40750   -10.43250
Pt     2.40750     5.61750   -10.43250
Pt     0.80250   -12.03750     0.80250
Pt   -12.03750     0.80250     0.80250
Pt     0.80250     0.80250   -12.03750
Pt     2.40750    -0.80250    12.03750
Pt    -0.80250     2.40750    12.03750
Pt    12.03750    -0.80250     2.40750
Pt    -0.80250    12.03750     2.40750
Pt    12.03750     2.40750    -0.80250
Pt     2.40750    12.03750    -0.80250
Pt    -2.40750   -12.03750     0.80250
Pt   -12.03750    -2.40750     0.80250
Pt     0.80250   -12.03750    -2.40750
Pt   -12.03750     0.80250    -2.40750
Pt     0.80250    -2.40750   -12.03750
Pt    -2.40750     0.80250   -12.03750
Pt     7.22250     7.22250     7.22250
Pt     2.40750     2.40750    12.03750
Pt     8.82750    -0.80250     8.82750
Pt    -0.80250     8.82750     8.82750
Pt    12.03750     2.40750     2.40750
Pt     2.40750    12.03750     2.40750
Pt     8.82750     8.82750    -0.80250
Pt     4.01250    -5.61750    10.43250
Pt    -5.61750     4.01250    10.43250
Pt    10.43250    -5.61750     4.01250
Pt    -5.61750    10.43250     4.01250
Pt    10.43250     4.01250    -5.61750
Pt     4.01250    10.43250    -5.61750
Pt    -4.01250   -10.43250     5.61750
Pt   -10.43250    -4.01250     5.61750
Pt     5.61750   -10.43250    -4.01250
Pt   -10.43250     5.61750    -4.01250
Pt     5.61750    -4.01250   -10.43250
Pt    -4.01250     5.61750   -10.43250
Pt    -8.82750    -8.82750     0.80250
Pt    -2.40750   -12.03750    -2.40750
Pt   -12.03750    -2.40750    -2.40750
Pt     0.80250    -8.82750    -8.82750
Pt    -8.82750     0.80250    -8.82750
Pt    -2.40750    -2.40750   -12.03750
Pt    -7.22250    -7.22250    -7.22250
Pt     8.82750     2.40750     8.82750
Pt     2.40750     8.82750     8.82750
Pt     7.22250     0.80250    10.43250
Pt     0.80250     7.22250    10.43250
Pt    10.43250     0.80250     7.22250
Pt     0.80250    10.43250     7.22250
Pt     8.82750     8.82750     2.40750
Pt    10.43250     7.22250     0.80250
Pt     7.22250    10.43250     0.80250
Pt    -0.80250    -4.01250    12.03750
Pt    -4.01250    -0.80250    12.03750
Pt     5.61750    -7.22250     8.82750
Pt    -7.22250     5.61750     8.82750
Pt     8.82750    -7.22250     5.61750
Pt    -7.22250     8.82750     5.61750
Pt    12.03750    -4.01250    -0.80250
Pt    -4.01250    12.03750    -0.80250
Pt    12.03750    -0.80250    -4.01250
Pt    -0.80250    12.03750    -4.01250
Pt     8.82750     5.61750    -7.22250
Pt     5.61750     8.82750    -7.22250
Pt    -5.61750    -8.82750     7.22250
Pt    -8.82750    -5.61750     7.22250
Pt     0.80250   -12.03750     4.01250
Pt   -12.03750     0.80250     4.01250
Pt     4.01250   -12.03750     0.80250
Pt   -12.03750     4.01250     0.80250
Pt     7.22250    -8.82750    -5.61750
Pt    -8.82750     7.22250    -5.61750
Pt     7.22250    -5.61750    -8.82750
Pt    -5.61750     7.22250    -8.82750
Pt     4.01250     0.80250   -12.03750
Pt     0.80250     4.01250   -12.03750
Pt    -7.22250   -10.43250    -0.80250
Pt   -10.43250    -7.22250    -0.80250
Pt    -8.82750    -8.82750    -2.40750
Pt    -0.80250   -10.43250    -7.22250
Pt   -10.43250    -0.80250    -7.22250
Pt    -0.80250    -7.22250   -10.43250
Pt    -7.22250    -0.80250   -10.43250
Pt    -2.40750    -8.82750    -8.82750
Pt    -8.82750    -2.40750    -8.82750
Pt     7.22250    -2.40750    10.43250
Pt    -2.40750     7.22250    10.43250
Pt    10.43250    -2.40750     7.22250
Pt    -2.40750    10.43250     7.22250
Pt     2.40750    -4.01250    12.03750
Pt    -4.01250     2.40750    12.03750
Pt    10.43250     7.22250    -2.40750
Pt     7.22250    10.43250    -2.40750
Pt    12.03750    -4.01250     2.40750
Pt    -4.01250    12.03750     2.40750
Pt    12.03750     2.40750    -4.01250
Pt     2.40750    12.03750    -4.01250
Pt    -2.40750   -12.03750     4.01250
Pt   -12.03750    -2.40750     4.01250
Pt     4.01250   -12.03750    -2.40750
Pt   -12.03750     4.01250    -2.40750
Pt    -7.22250   -10.43250     2.40750
Pt   -10.43250    -7.22250     2.40750
Pt     4.01250    -2.40750   -12.03750
Pt    -2.40750     4.01250   -12.03750
Pt     2.40750   -10.43250    -7.22250
Pt   -10.43250     2.40750    -7.22250
Pt     2.40750    -7.22250   -10.43250
Pt    -7.22250     2.40750   -10.43250
Pt     8.82750    -4.01250     8.82750
Pt    -4.01250     8.82750     8.82750
Pt     8.82750     8.82750    -4.01250
Pt    -5.61750    -5.61750    10.43250
Pt     5.61750   -10.43250     5.61750
Pt   -10.43250     5.61750     5.61750
Pt    10.43250    -5.61750    -5.61750
Pt    -5.61750    10.43250    -5.61750
Pt     5.61750     5.61750   -10.43250
Pt    -8.82750    -8.82750     4.01250
Pt     4.01250    -8.82750    -8.82750
Pt    -8.82750     4.01250    -8.82750
Pt     7.22250     4.01250    10.43250
Pt     4.01250     7.22250    10.43250
Pt    10.43250     4.01250     7.22250
Pt     4.01250    10.43250     7.22250
Pt    10.43250     7.22250     4.01250
Pt     7.22250    10.43250     4.01250
Pt     5.61750    -0.80250    12.03750
Pt    -0.80250     5.61750    12.03750
Pt    12.03750    -0.80250     5.61750
Pt    -0.80250    12.03750     5.61750
Pt    12.03750     5.61750    -0.80250
Pt     5.61750    12.03750    -0.80250
Pt    -4.01250    -4.01250    12.03750
Pt    12.03750    -4.01250    -4.01250
Pt    -4.01250    12.03750    -4.01250
Pt     4.01250   -12.03750     4.01250
Pt   -12.03750     4.01250     4.01250
Pt     4.01250     4.01250   -12.03750
Pt    -5.61750   -12.03750     0.80250
Pt   -12.03750    -5.61750     0.80250
Pt     0.80250   -12.03750    -5.61750
Pt   -12.03750     0.80250    -5.61750
Pt     0.80250    -5.61750   -12.03750
Pt    -5.61750     0.80250   -12.03750
Pt    -7.22250   -10.43250    -4.01250
Pt   -10.43250    -7.22250    -4.01250
Pt    -4.01250   -10.43250    -7.22250
Pt   -10.43250    -4.01250    -7.22250
Pt    -4.01250    -7.22250   -10.43250
Pt    -7.22250    -4.01250   -10.43250
Pt     5.61750     2.40750    12.03750
Pt     2.40750     5.61750    12.03750
Pt    12.03750     2.40750     5.61750
Pt     2.40750    12.03750     5.61750
Pt    12.03750     5.61750     2.40750
Pt     5.61750    12.03750     2.40750
Pt     7.22250    -8.82750     7.22250
Pt    -8.82750     7.22250     7.22250
Pt     7.22250     7.22250    -8.82750
Pt    -7.22250    -7.22250     8.82750
Pt     8.82750    -7.22250    -7.22250
Pt    -7.22250     8.82750    -7.22250
Pt    -5.61750   -12.03750    -2.40750
Pt   -12.03750    -5.61750    -2.40750
Pt    -2.40750   -12.03750    -5.61750
Pt   -12.03750    -2.40750    -5.61750
Pt    -2.40750    -5.61750   -12.03750
Pt    -5.61750    -2.40750   -12.03750
Pt     8.82750     5.61750     8.82750
Pt     5.61750     8.82750     8.82750
Pt     8.82750     8.82750     5.61750
Pt     0.80250     0.80250    13.64250
Pt    13.64250     0.80250     0.80250
Pt     0.80250    13.64250     0.80250
Pt     0.80250    -8.82750    10.43250
Pt    -8.82750     0.80250    10.43250
Pt    10.43250    -8.82750     0.80250
Pt    -8.82750    10.43250     0.80250
Pt    -0.80250   -10.43250     8.82750
Pt   -10.43250    -0.80250     8.82750
Pt    10.43250     0.80250    -8.82750
Pt     0.80250    10.43250    -8.82750
Pt     8.82750   -10.43250    -0.80250
Pt   -10.43250     8.82750    -0.80250
Pt     8.82750    -0.80250   -10.43250
Pt    -0.80250     8.82750   -10.43250
Pt    -0.80250   -13.64250    -0.80250
Pt   -13.64250    -0.80250    -0.80250
Pt    -0.80250    -0.80250   -13.64250
Pt    -8.82750    -8.82750    -5.61750
Pt    -5.61750    -8.82750    -8.82750
Pt    -8.82750    -5.61750    -8.82750
Pt     5.61750    -4.01250    12.03750
Pt    -4.01250     5.61750    12.03750
Pt     0.80250    -2.40750    13.64250
Pt    -2.40750     0.80250    13.64250
Pt     7.22250    -5.61750    10.43250
Pt    -5.61750     7.22250    10.43250
Pt    12.03750    -4.01250     5.61750
Pt    -4.01250    12.03750     5.61750
Pt    10.43250    -5.61750     7.22250
Pt    -5.61750    10.43250     7.22250
Pt    13.64250    -2.40750     0.80250
Pt    -2.40750    13.64250     0.80250
Pt    12.03750     5.61750    -4.01250
Pt     5.61750    12.03750    -4.01250
Pt    13.64250     0.80250    -2.40750
Pt     0.80250    13.64250    -2.40750
Pt    10.43250     7.22250    -5.61750
Pt     7.22250    10.43250    -5.61750
Pt     2.40750   -10.43250     8.82750
Pt   -10.43250     2.40750     8.82750
Pt    -2.40750    -8.82750    10.43250
Pt    -8.82750    -2.40750    10.43250
Pt     8.82750   -10.43250     2.40750
Pt   -10.43250     8.82750     2.40750
Pt    10.43250    -8.82750    -2.40750
Pt    -8.82750    10.43250    -2.40750
Pt     8.82750     2.40750   -10.43250
Pt     2.40750     8.82750   -10.43250
Pt    10.43250    -2.40750    -8.82750
Pt    -2.40750    10.43250    -8.82750
Pt    -7.22250   -10.43250     5.61750
Pt   -10.43250    -7.22250     5.61750
Pt    -0.80250   -13.64250     2.40750
Pt   -13.64250    -0.80250     2.40750
Pt    -5.61750   -12.03750     4.01250
Pt   -12.03750    -5.61750     4.01250
Pt     2.40750   -13.64250    -0.80250
Pt   -13.64250     2.40750    -0.80250
Pt     5.61750   -10.43250    -7.22250
Pt   -10.43250     5.61750    -7.22250
Pt     4.01250   -12.03750    -5.61750
Pt   -12.03750     4.01250    -5.61750
Pt     5.61750    -7.22250   -10.43250
Pt    -7.22250     5.61750   -10.43250
Pt     2.40750    -0.80250   -13.64250
Pt    -0.80250     2.40750   -13.64250
Pt     4.01250    -5.61750   -12.03750
Pt    -5.61750     4.01250   -12.03750
Pt    -2.40750    -2.40750    13.64250
Pt    -0.80250    -7.22250    12.03750
Pt    -7.22250    -0.80250    12.03750
Pt    13.64250    -2.40750    -2.40750
Pt    -2.40750    13.64250    -2.40750
Pt    12.03750    -7.22250    -0.80250
Pt    -7.22250    12.03750    -0.80250
Pt    12.03750    -0.80250    -7.22250
Pt     0.80250   -12.03750     7.22250
Pt    -0.80250    12.03750    -7.22250
Pt   -12.03750     0.80250     7.22250
Pt     7.22250   -12.03750     0.80250
Pt   -12.03750     7.22250     0.80250
Pt     2.40750   -13.64250     2.40750
Pt   -13.64250     2.40750     2.40750
Pt     7.22250     0.80250   -12.03750
Pt     0.80250     7.22250   -12.03750
Pt     2.40750     2.40750   -13.64250
Pt     4.01250     0.80250    13.64250
Pt     0.80250     4.01250    13.64250
Pt    13.64250     0.80250     4.01250
Pt     0.80250    13.64250     4.01250
Pt    13.64250     4.01250     0.80250
Pt     4.01250    13.64250     0.80250
Pt     2.40750    -7.22250    12.03750
Pt    -7.22250     2.40750    12.03750
Pt     4.01250    -8.82750    10.43250
Pt    -8.82750     4.01250    10.43250
Pt    12.03750    -7.22250     2.40750
Pt    -7.22250    12.03750     2.40750
Pt    10.43250    -8.82750     4.01250
Pt    -8.82750    10.43250     4.01250
Pt    12.03750     2.40750    -7.22250
Pt     2.40750    12.03750    -7.22250
Pt    10.43250     4.01250    -8.82750
Pt     4.01250    10.43250    -8.82750
Pt    -4.01250   -10.43250     8.82750
Pt   -10.43250    -4.01250     8.82750
Pt    -2.40750   -12.03750     7.22250
Pt   -12.03750    -2.40750     7.22250
Pt     8.82750   -10.43250    -4.01250
Pt   -10.43250     8.82750    -4.01250
Pt     7.22250   -12.03750    -2.40750
Pt   -12.03750     7.22250    -2.40750
Pt     8.82750    -4.01250   -10.43250
Pt    -4.01250     8.82750   -10.43250
Pt     7.22250    -2.40750   -12.03750
Pt    -2.40750     7.22250   -12.03750
Pt    -4.01250   -13.64250    -0.80250
Pt   -13.64250    -4.01250    -0.80250
Pt    -0.80250   -13.64250    -4.01250
Pt   -13.64250    -0.80250    -4.01250
Pt    -0.80250    -4.01250   -13.64250
Pt    -4.01250    -0.80250   -13.64250
Pt     5.61750     5.61750    12.03750
Pt    12.03750     5.61750     5.61750
Pt     5.61750    12.03750     5.61750
Pt     4.01250    -2.40750    13.64250
Pt    -2.40750     4.01250    13.64250
Pt    13.64250    -2.40750     4.01250
Pt    -2.40750    13.64250     4.01250
Pt     8.82750    -7.22250     8.82750
Pt    -7.22250     8.82750     8.82750
Pt    13.64250     4.01250    -2.40750
Pt     4.01250    13.64250    -2.40750
Pt     8.82750     8.82750    -7.22250
Pt    -8.82750    -8.82750     7.22250
Pt    -4.01250   -13.64250     2.40750
Pt   -13.64250    -4.01250     2.40750
Pt     7.22250    -8.82750    -8.82750
Pt    -8.82750     7.22250    -8.82750
Pt     2.40750   -13.64250    -4.01250
Pt   -13.64250     2.40750    -4.01250
Pt     2.40750    -4.01250   -13.64250
Pt    -4.01250     2.40750   -13.64250
Pt    -5.61750   -12.03750    -5.61750
Pt   -12.03750    -5.61750    -5.61750
Pt    -5.61750    -5.61750   -12.03750
Pt     7.22250     7.22250    10.43250
Pt    10.43250     7.22250     7.22250
Pt     7.22250    10.43250     7.22250
Pt    -4.01250    -7.22250    12.03750
Pt    -7.22250    -4.01250    12.03750
Pt     4.01250   -12.03750     7.22250
Pt   -12.03750     4.01250     7.22250
Pt     7.22250   -12.03750     4.01250
Pt   -12.03750     7.22250     4.01250
Pt    12.03750    -7.22250    -4.01250
Pt    -7.22250    12.03750    -4.01250
Pt    12.03750    -4.01250    -7.22250
Pt    -4.01250    12.03750    -7.22250
Pt     7.22250     4.01250   -12.03750
Pt     4.01250     7.22250   -12.03750
Pt    -7.22250   -10.43250    -7.22250
Pt   -10.43250    -7.22250    -7.22250
Pt    -7.22250    -7.22250   -10.43250
Pt     4.01250     4.01250    13.64250
Pt    10.43250     0.80250    10.43250
Pt     0.80250    10.43250    10.43250
Pt    13.64250     4.01250     4.01250
Pt     4.01250    13.64250     4.01250
Pt    10.43250    10.43250     0.80250
Pt     0.80250    -5.61750    13.64250
Pt    -5.61750     0.80250    13.64250
Pt    13.64250    -5.61750     0.80250
Pt    -5.61750    13.64250     0.80250
Pt     5.61750   -10.43250     8.82750
Pt   -10.43250     5.61750     8.82750
Pt     8.82750   -10.43250     5.61750
Pt   -10.43250     8.82750     5.61750
Pt    13.64250     0.80250    -5.61750
Pt     0.80250    13.64250    -5.61750
Pt    -5.61750    -8.82750    10.43250
Pt    -8.82750    -5.61750    10.43250
Pt     8.82750     5.61750   -10.43250
Pt     5.61750     8.82750   -10.43250
Pt    -0.80250   -13.64250     5.61750
Pt   -13.64250    -0.80250     5.61750
Pt    10.43250    -8.82750    -5.61750
Pt    -8.82750    10.43250    -5.61750
Pt    10.43250    -5.61750    -8.82750
Pt    -5.61750    10.43250    -8.82750
Pt     5.61750   -13.64250    -0.80250
Pt   -13.64250     5.61750    -0.80250
Pt     5.61750    -0.80250   -13.64250
Pt    -0.80250     5.61750   -13.64250
Pt   -10.43250   -10.43250    -0.80250
Pt    -4.01250   -13.64250    -4.01250
Pt   -13.64250    -4.01250    -4.01250
Pt    -0.80250   -10.43250   -10.43250
Pt   -10.43250    -0.80250   -10.43250
Pt    -4.01250    -4.01250   -13.64250
Pt     8.82750    -0.80250    12.03750
Pt    -0.80250     8.82750    12.03750
Pt    12.03750    -0.80250     8.82750
Pt    -0.80250    12.03750     8.82750
Pt    10.43250    -2.40750    10.43250
Pt    -2.40750    10.43250    10.43250
Pt    12.03750     8.82750    -0.80250
Pt     8.82750    12.03750    -0.80250
Pt    10.43250    10.43250    -2.40750
Pt    -2.40750    -5.61750    13.64250
Pt    -5.61750    -2.40750    13.64250
Pt    13.64250    -5.61750    -2.40750
Pt    -5.61750    13.64250    -2.40750
Pt    13.64250    -2.40750    -5.61750
Pt    -2.40750    13.64250    -5.61750
Pt     2.40750   -13.64250     5.61750
Pt   -13.64250     2.40750     5.61750
Pt     5.61750   -13.64250     2.40750
Pt   -13.64250     5.61750     2.40750
Pt     5.61750     2.40750   -13.64250
Pt     2.40750     5.61750   -13.64250
Pt   -10.43250   -10.43250     2.40750
Pt    -8.82750   -12.03750     0.80250
Pt   -12.03750    -8.82750     0.80250
Pt     2.40750   -10.43250   -10.43250
Pt   -10.43250     2.40750   -10.43250
Pt     0.80250   -12.03750    -8.82750
Pt   -12.03750     0.80250    -8.82750
Pt     0.80250    -8.82750   -12.03750
Pt    -8.82750     0.80250   -12.03750
