249

Pt    -3.93151    -3.93151    -7.86303
Pt     0.00000    -3.93151    -7.86303
Pt     3.93151    -3.93151    -7.86303
Pt    -3.93151     0.00000    -7.86303
Pt     0.00000     0.00000    -7.86303
Pt     3.93151     0.00000    -7.86303
Pt    -3.93151     3.93151    -7.86303
Pt     0.00000     3.93151    -7.86303
Pt     3.93151     3.93151    -7.86303
Pt    -3.93151    -7.86303    -3.93151
Pt     0.00000    -7.86303    -3.93151
Pt     3.93151    -7.86303    -3.93151
Pt    -7.86303    -3.93151    -3.93151
Pt    -3.93151    -3.93151    -3.93151
Pt     0.00000    -3.93151    -3.93151
Pt     3.93151    -3.93151    -3.93151
Pt     7.86303    -3.93151    -3.93151
Pt    -7.86303     0.00000    -3.93151
Pt    -3.93151     0.00000    -3.93151
Pt     0.00000     0.00000    -3.93151
Pt     3.93151     0.00000    -3.93151
Pt     7.86303     0.00000    -3.93151
Pt    -7.86303     3.93151    -3.93151
Pt    -3.93151     3.93151    -3.93151
Pt     0.00000     3.93151    -3.93151
Pt     3.93151     3.93151    -3.93151
Pt     7.86303     3.93151    -3.93151
Pt    -3.93151     7.86303    -3.93151
Pt     0.00000     7.86303    -3.93151
Pt     3.93151     7.86303    -3.93151
Pt    -3.93151    -7.86303     0.00000
Pt     0.00000    -7.86303     0.00000
Pt     3.93151    -7.86303     0.00000
Pt    -7.86303    -3.93151     0.00000
Pt    -3.93151    -3.93151     0.00000
Pt     0.00000    -3.93151     0.00000
Pt     3.93151    -3.93151     0.00000
Pt     7.86303    -3.93151     0.00000
Pt    -7.86303     0.00000     0.00000
Pt    -3.93151     0.00000     0.00000
Pt     0.00000     0.00000     0.00000
Pt     3.93151     0.00000     0.00000
Pt     7.86303     0.00000     0.00000
Pt    -7.86303     3.93151     0.00000
Pt    -3.93151     3.93151     0.00000
Pt     0.00000     3.93151     0.00000
Pt     3.93151     3.93151     0.00000
Pt     7.86303     3.93151     0.00000
Pt    -3.93151     7.86303     0.00000
Pt     0.00000     7.86303     0.00000
Pt     3.93151     7.86303     0.00000
Pt    -3.93151    -7.86303     3.93151
Pt     0.00000    -7.86303     3.93151
Pt     3.93151    -7.86303     3.93151
Pt    -7.86303    -3.93151     3.93151
Pt    -3.93151    -3.93151     3.93151
Pt     0.00000    -3.93151     3.93151
Pt     3.93151    -3.93151     3.93151
Pt     7.86303    -3.93151     3.93151
Pt    -7.86303     0.00000     3.93151
Pt    -3.93151     0.00000     3.93151
Pt     0.00000     0.00000     3.93151
Pt     3.93151     0.00000     3.93151
Pt     7.86303     0.00000     3.93151
Pt    -7.86303     3.93151     3.93151
Pt    -3.93151     3.93151     3.93151
Pt     0.00000     3.93151     3.93151
Pt     3.93151     3.93151     3.93151
Pt     7.86303     3.93151     3.93151
Pt    -3.93151     7.86303     3.93151
Pt     0.00000     7.86303     3.93151
Pt     3.93151     7.86303     3.93151
Pt    -3.93151    -3.93151     7.86303
Pt     0.00000    -3.93151     7.86303
Pt     3.93151    -3.93151     7.86303
Pt    -3.93151     0.00000     7.86303
Pt     0.00000     0.00000     7.86303
Pt     3.93151     0.00000     7.86303
Pt    -3.93151     3.93151     7.86303
Pt     0.00000     3.93151     7.86303
Pt     3.93151     3.93151     7.86303
Pt    -1.96576    -1.96576    -7.86303
Pt     1.96576    -1.96576    -7.86303
Pt    -1.96576     1.96576    -7.86303
Pt     1.96576     1.96576    -7.86303
Pt    -5.89727    -5.89727    -3.93151
Pt    -1.96576    -5.89727    -3.93151
Pt     1.96576    -5.89727    -3.93151
Pt     5.89727    -5.89727    -3.93151
Pt    -5.89727    -1.96576    -3.93151
Pt    -1.96576    -1.96576    -3.93151
Pt     1.96576    -1.96576    -3.93151
Pt     5.89727    -1.96576    -3.93151
Pt    -5.89727     1.96576    -3.93151
Pt    -1.96576     1.96576    -3.93151
Pt     1.96576     1.96576    -3.93151
Pt     5.89727     1.96576    -3.93151
Pt    -5.89727     5.89727    -3.93151
Pt    -1.96576     5.89727    -3.93151
Pt     1.96576     5.89727    -3.93151
Pt     5.89727     5.89727    -3.93151
Pt    -5.89727    -5.89727     0.00000
Pt    -1.96576    -5.89727     0.00000
Pt     1.96576    -5.89727     0.00000
Pt     5.89727    -5.89727     0.00000
Pt    -5.89727    -1.96576     0.00000
Pt    -1.96576    -1.96576     0.00000
Pt     1.96576    -1.96576     0.00000
Pt     5.89727    -1.96576     0.00000
Pt    -5.89727     1.96576     0.00000
Pt    -1.96576     1.96576     0.00000
Pt     1.96576     1.96576     0.00000
Pt     5.89727     1.96576     0.00000
Pt    -5.89727     5.89727     0.00000
Pt    -1.96576     5.89727     0.00000
Pt     1.96576     5.89727     0.00000
Pt     5.89727     5.89727     0.00000
Pt    -5.89727    -5.89727     3.93151
Pt    -1.96576    -5.89727     3.93151
Pt     1.96576    -5.89727     3.93151
Pt     5.89727    -5.89727     3.93151
Pt    -5.89727    -1.96576     3.93151
Pt    -1.96576    -1.96576     3.93151
Pt     1.96576    -1.96576     3.93151
Pt     5.89727    -1.96576     3.93151
Pt    -5.89727     1.96576     3.93151
Pt    -1.96576     1.96576     3.93151
Pt     1.96576     1.96576     3.93151
Pt     5.89727     1.96576     3.93151
Pt    -5.89727     5.89727     3.93151
Pt    -1.96576     5.89727     3.93151
Pt     1.96576     5.89727     3.93151
Pt     5.89727     5.89727     3.93151
Pt    -1.96576    -1.96576     7.86303
Pt     1.96576    -1.96576     7.86303
Pt    -1.96576     1.96576     7.86303
Pt     1.96576     1.96576     7.86303
Pt    -1.96576    -7.86303    -1.96576
Pt     1.96576    -7.86303    -1.96576
Pt    -1.96576    -7.86303     1.96576
Pt     1.96576    -7.86303     1.96576
Pt    -5.89727    -3.93151    -5.89727
Pt    -1.96576    -3.93151    -5.89727
Pt     1.96576    -3.93151    -5.89727
Pt     5.89727    -3.93151    -5.89727
Pt    -5.89727    -3.93151    -1.96576
Pt    -1.96576    -3.93151    -1.96576
Pt     1.96576    -3.93151    -1.96576
Pt     5.89727    -3.93151    -1.96576
Pt    -5.89727    -3.93151     1.96576
Pt    -1.96576    -3.93151     1.96576
Pt     1.96576    -3.93151     1.96576
Pt     5.89727    -3.93151     1.96576
Pt    -5.89727    -3.93151     5.89727
Pt    -1.96576    -3.93151     5.89727
Pt     1.96576    -3.93151     5.89727
Pt     5.89727    -3.93151     5.89727
Pt    -5.89727     0.00000    -5.89727
Pt    -1.96576     0.00000    -5.89727
Pt     1.96576     0.00000    -5.89727
Pt     5.89727     0.00000    -5.89727
Pt    -5.89727     0.00000    -1.96576
Pt    -1.96576     0.00000    -1.96576
Pt     1.96576     0.00000    -1.96576
Pt     5.89727     0.00000    -1.96576
Pt    -5.89727     0.00000     1.96576
Pt    -1.96576     0.00000     1.96576
Pt     1.96576     0.00000     1.96576
Pt     5.89727     0.00000     1.96576
Pt    -5.89727     0.00000     5.89727
Pt    -1.96576     0.00000     5.89727
Pt     1.96576     0.00000     5.89727
Pt     5.89727     0.00000     5.89727
Pt    -5.89727     3.93151    -5.89727
Pt    -1.96576     3.93151    -5.89727
Pt     1.96576     3.93151    -5.89727
Pt     5.89727     3.93151    -5.89727
Pt    -5.89727     3.93151    -1.96576
Pt    -1.96576     3.93151    -1.96576
Pt     1.96576     3.93151    -1.96576
Pt     5.89727     3.93151    -1.96576
Pt    -5.89727     3.93151     1.96576
Pt    -1.96576     3.93151     1.96576
Pt     1.96576     3.93151     1.96576
Pt     5.89727     3.93151     1.96576
Pt    -5.89727     3.93151     5.89727
Pt    -1.96576     3.93151     5.89727
Pt     1.96576     3.93151     5.89727
Pt     5.89727     3.93151     5.89727
Pt    -1.96576     7.86303    -1.96576
Pt     1.96576     7.86303    -1.96576
Pt    -1.96576     7.86303     1.96576
Pt     1.96576     7.86303     1.96576
Pt    -7.86303    -1.96576    -1.96576
Pt    -7.86303     1.96576    -1.96576
Pt    -7.86303    -1.96576     1.96576
Pt    -7.86303     1.96576     1.96576
Pt    -3.93151    -5.89727    -5.89727
Pt    -3.93151    -1.96576    -5.89727
Pt    -3.93151     1.96576    -5.89727
Pt    -3.93151     5.89727    -5.89727
Pt    -3.93151    -5.89727    -1.96576
Pt    -3.93151    -1.96576    -1.96576
Pt    -3.93151     1.96576    -1.96576
Pt    -3.93151     5.89727    -1.96576
Pt    -3.93151    -5.89727     1.96576
Pt    -3.93151    -1.96576     1.96576
Pt    -3.93151     1.96576     1.96576
Pt    -3.93151     5.89727     1.96576
Pt    -3.93151    -5.89727     5.89727
Pt    -3.93151    -1.96576     5.89727
Pt    -3.93151     1.96576     5.89727
Pt    -3.93151     5.89727     5.89727
Pt     0.00000    -5.89727    -5.89727
Pt     0.00000    -1.96576    -5.89727
Pt     0.00000     1.96576    -5.89727
Pt     0.00000     5.89727    -5.89727
Pt     0.00000    -5.89727    -1.96576
Pt     0.00000    -1.96576    -1.96576
Pt     0.00000     1.96576    -1.96576
Pt     0.00000     5.89727    -1.96576
Pt     0.00000    -5.89727     1.96576
Pt     0.00000    -1.96576     1.96576
Pt     0.00000     1.96576     1.96576
Pt     0.00000     5.89727     1.96576
Pt     0.00000    -5.89727     5.89727
Pt     0.00000    -1.96576     5.89727
Pt     0.00000     1.96576     5.89727
Pt     0.00000     5.89727     5.89727
Pt     3.93151    -5.89727    -5.89727
Pt     3.93151    -1.96576    -5.89727
Pt     3.93151     1.96576    -5.89727
Pt     3.93151     5.89727    -5.89727
Pt     3.93151    -5.89727    -1.96576
Pt     3.93151    -1.96576    -1.96576
Pt     3.93151     1.96576    -1.96576
Pt     3.93151     5.89727    -1.96576
Pt     3.93151    -5.89727     1.96576
Pt     3.93151    -1.96576     1.96576
Pt     3.93151     1.96576     1.96576
Pt     3.93151     5.89727     1.96576
Pt     3.93151    -5.89727     5.89727
Pt     3.93151    -1.96576     5.89727
Pt     3.93151     1.96576     5.89727
Pt     3.93151     5.89727     5.89727
Pt     7.86303    -1.96576    -1.96576
Pt     7.86303     1.96576    -1.96576
Pt     7.86303    -1.96576     1.96576
Pt     7.86303     1.96576     1.96576
