959
 ghb 
Ni    -4.59858    -6.84601   -10.45860
Ni    -0.49928    -6.75630   -10.98370
Ni     3.70087    -6.69436   -10.96790
Ni    -5.87224    -3.62180   -11.02910
Ni    -3.80529    -3.65884   -12.03340
Ni     0.59766    -3.58085   -12.25120
Ni     4.92234    -3.52869   -11.39610
Ni     7.05241    -3.58651   -10.56570
Ni    -6.14416     0.35318   -11.35340
Ni    -3.52717    -0.45280   -10.24270
Ni    -0.20941    -0.32230   -10.21810
Ni     2.88339     0.41701   -12.05980
Ni     7.16822     0.46503   -10.29190
Ni    -5.99200     4.44025   -10.81920
Ni    -3.88003     4.40959   -11.67740
Ni    -0.36252     3.29740   -10.50070
Ni     2.72565     4.23030   -11.09490
Ni     7.17338     4.31098    -9.74811
Ni    -3.47648     8.06471   -10.14860
Ni     0.31444     7.83166    -9.92134
Ni     4.06542     7.49689    -9.71673
Ni    -4.14029   -10.15630    -7.45948
Ni    -0.30280   -10.12140    -7.64554
Ni     3.63688    -9.96454    -7.61952
Ni    -7.82313    -7.59687    -7.06312
Ni    -3.10644    -7.93249    -6.77081
Ni     0.36121    -7.68214    -7.00571
Ni     3.67276    -7.63325    -6.74804
Ni     7.53014    -7.48652    -8.01707
Ni    -9.47399    -3.99896    -8.22557
Ni    -7.32024    -3.73243    -7.40640
Ni    -4.07244    -4.01064    -7.38356
Ni    -0.02379    -4.23454    -7.17556
Ni     3.65804    -4.13877    -7.46752
Ni     7.14949    -4.32991    -7.34623
Ni    10.30990    -3.80032    -7.50962
Ni    -9.74151     0.08991    -8.30980
Ni    -7.50156    -0.63343    -7.41797
Ni    -3.98074    -0.39420    -7.20194
Ni     0.70580    -0.28668    -7.89936
Ni     3.34092    -0.72819    -7.91568
Ni     6.80277    -0.26544    -7.59040
Ni    10.51740    -0.13979    -7.16192
Ni    -9.77548     3.95741    -7.92329
Ni    -7.64190     3.10004    -7.29802
Ni    -3.95228     3.43381    -7.21251
Ni    -0.22026     3.83504    -7.48634
Ni     3.54560     3.56683    -7.43636
Ni     5.94355     3.18425    -8.05130
Ni    10.27070     3.78792    -6.24493
Ni    -7.15962     7.82847    -7.86152
Ni    -3.79575     6.89636    -7.86965
Ni    -0.19714     7.16230    -7.66179
Ni     3.40853     7.08032    -7.55236
Ni     7.85725     7.75908    -6.84503
Ni    -3.66006    10.64800    -6.34801
Ni     0.37625    11.10430    -6.45658
Ni     4.35023    10.96950    -6.39037
Ni    -6.58598   -10.43550    -3.56742
Ni    -4.51971   -11.43100    -3.80053
Ni    -0.50169   -11.91880    -3.16764
Ni     4.76874   -11.08050    -4.07450
Ni     6.97702   -10.12120    -4.42037
Ni   -10.08580    -7.05321    -3.00022
Ni    -7.85146    -6.40776    -3.25691
Ni    -3.59953    -7.30188    -3.74251
Ni     0.27957    -7.46369    -3.43111
Ni     3.85766    -7.08214    -3.31271
Ni     7.35442    -7.52441    -3.16747
Ni    10.21190    -6.76016    -4.30596
Ni   -11.70340    -3.96823    -4.16381
Ni    -7.26028    -3.98001    -3.71277
Pt    -3.76711    -4.00711    -3.83781
Pt     0.14425    -3.82799    -3.75519
Pt     3.93066    -3.96948    -3.63374
Ni     7.00889    -3.60265    -3.81595
Ni    10.71600    -4.34778    -4.11616
Ni   -11.05070     0.06869    -4.07379
Ni    -7.53150    -0.44024    -3.74099
Pt    -3.80408    -0.13709    -3.84839
Pt    -0.00925    -0.09377    -3.78573
Pt     3.88394     0.10730    -3.79274
Ni     6.76865    -0.19343    -4.39246
Ni     9.91540     0.22887    -4.07690
Ni   -11.17630     4.17563    -4.04261
Ni    -7.42233     3.34545    -3.96365
Pt    -4.02565     3.76640    -3.96360
Pt    -0.12218     3.78001    -3.90088
Pt     3.70334     3.98475    -3.91661
Ni     6.81960     4.19406    -3.91391
Ni    10.95380     3.24358    -3.95876
Ni   -10.14670     6.84296    -4.47632
Ni    -7.98735     7.30327    -3.23882
Ni    -4.16802     6.83205    -3.84803
Ni    -0.38844     7.17270    -4.04580
Ni     3.62779     7.45671    -3.91142
Ni     8.07539     6.33746    -3.77555
Ni    10.24150     7.04691    -3.06779
Ni    -7.49253    10.35430    -4.02997
Ni    -3.73275    11.45270    -4.20373
Ni    -0.54908     9.97789    -3.67578
Ni     4.27705    11.82700    -4.32126
Ni     7.25784    10.49620    -3.03599
Ni    -6.59243   -10.74930     0.43364
Ni    -4.04427   -10.06290    -0.18263
Ni    -0.17202   -10.27330     0.31918
Ni     2.92707   -11.83050    -0.19790
Ni     7.23247   -10.42410    -0.34394
Ni    -9.86089    -7.65264     0.89712
Ni    -7.66541    -6.90491     0.25683
Ni    -4.15073    -6.67238     0.03510
Ni    -0.01225    -7.60630    -0.03169
Ni     3.78194    -7.33494     0.37164
Ni     7.38041    -7.57622     0.87789
Ni    10.62710    -7.02839    -0.54180
Ni   -11.44260    -3.99271     0.38014
Ni    -7.78053    -3.11224     0.41819
Pt    -3.82092    -3.83153     0.08888
Pt     0.00703    -3.77575     0.04619
Pt     3.86701    -3.70081     0.08860
Ni     7.46475    -4.01058     0.48571
Ni     9.81755    -3.53983     0.02041
Ni   -10.32490     0.48107    -0.09090
Ni    -7.73258    -0.36518    -0.10813
Pt    -3.92362    -0.04849    -0.01226
Pt    -0.04122     0.05468    -0.04284
Pt     3.93402     0.08241     0.01361
Ni     7.60933     0.56701    -0.14768
Ni     9.83473     0.27607    -0.49322
Ni   -10.49030     3.26227    -0.35980
Ni    -7.35310     3.88730     0.22995
Pt    -3.96699     3.95849    -0.04596
Pt    -0.00615     3.97986     0.00838
Pt     3.88067     4.10253    -0.07981
Ni     7.04646     4.03401     0.05792
Ni    11.96280     3.01084     0.27942
Ni   -10.47310     7.50729    -0.47565
Ni    -7.98945     7.45461     0.10611
Ni    -3.98221     7.11191    -0.38827
Ni     0.31489     7.67945     0.15813
Ni     3.92208     7.63995     0.30862
Ni     7.37917     7.31063    -0.15089
Ni    10.41480     7.11909     0.84162
Ni    -7.45804    10.76540    -1.51839
Ni    -3.97175     9.67589    -0.10454
Ni    -0.42384     9.98652    -0.20594
Ni     3.51451     9.80441    -0.71540
Ni     7.44066    10.66630     0.93154
Ni    -6.11758   -10.48380     4.68635
Ni    -3.82857   -11.09750     4.32368
Ni     0.52059   -12.13120     2.80461
Ni     4.99226   -11.31820     3.75720
Ni     7.21573   -10.31340     3.52101
Ni    -9.82373    -7.54806     4.49176
Ni    -7.42332    -7.15293     3.90402
Ni    -3.75610    -7.29792     3.80097
Ni     0.12020    -7.37168     3.80920
Ni     3.76464    -7.32706     4.02137
Ni     7.28146    -7.05108     4.31178
Ni    10.68330    -7.12844     3.56382
Ni   -11.35760    -5.93613     3.90059
Ni    -7.40557    -3.49688     4.17255
Pt    -3.73528    -3.77572     3.95175
Pt     0.10670    -3.74632     3.89619
Pt     3.89418    -3.72654     4.11712
Ni     7.28134    -3.91865     4.06407
Ni    10.84790    -4.26637     3.88339
Ni   -12.20410    -0.05535     2.73908
Ni    -7.55350     0.12641     3.84447
Pt    -3.78023     0.04733     3.94673
Pt     0.08252     0.15668     3.95636
Pt     3.92070     0.16692     3.81519
Ni     7.57269     0.18468     4.02178
Ni    10.11210    -0.03502     3.66471
Ni   -11.55260     3.84498     2.33320
Ni    -7.78956     3.93653     3.83626
Pt    -3.94138     3.88854     3.86793
Pt     0.08046     4.01501     3.90035
Pt     3.92370     3.99865     3.74813
Ni     7.48651     4.01723     3.70259
Ni    11.52670     3.84045     4.96327
Ni   -10.08170     7.46131     3.57316
Ni    -7.95207     6.43517     4.09995
Ni    -3.92710     6.97197     4.07548
Ni     0.17174     6.83505     4.25127
Ni     4.17481     7.75302     3.39564
Ni     7.44450     7.56413     3.52281
Ni    10.83080     7.31679     4.78644
Ni    -6.71865    10.50500     3.44205
Ni    -3.30578    11.36440     2.61427
Ni     0.69608    11.90890     2.83616
Ni     5.24905    11.53730     4.73866
Ni     7.65094    10.52090     5.01762
Ni    -3.40253   -10.11170     7.69340
Ni     0.42235   -10.40980     7.18090
Ni     4.46296   -10.75100     7.07216
Ni    -7.14672    -7.49467     8.26539
Ni    -3.54703    -7.40396     7.15467
Ni    -0.03081    -7.64296     7.16045
Ni     3.58146    -7.49595     7.39031
Ni     8.35277    -8.04121     7.46275
Ni   -10.00420    -3.97111     7.10137
Ni    -7.72116    -3.51512     6.76797
Ni    -3.52442    -3.79791     7.22573
Ni     0.00709    -4.11802     7.31568
Ni     3.87714    -3.52353     6.78401
Ni     6.79543    -3.84795     7.96053
Ni    10.80100    -4.15860     6.79839
Ni   -10.79590     0.13779     7.19251
Ni    -7.48850    -0.35314     7.52024
Ni    -3.88517     0.16974     7.31010
Ni    -0.38252     0.06131     7.65334
Ni     4.03689     0.24929     7.44686
Ni     7.51183     0.74587     7.38877
Ni    10.70780    -0.32610     7.02762
Ni   -10.24850     4.10980     6.70497
Ni    -7.84646     3.24329     7.29599
Ni    -3.27886     4.01523     7.91603
Ni    -0.88281     4.00707     7.99478
Ni     3.86348     4.13751     7.16453
Ni     7.31646     4.16435     7.10771
Ni    10.55880     3.60141     7.21786
Ni    -7.67512     7.83425     7.43094
Ni    -3.71926     7.67938     6.55331
Ni     0.35914     7.62716     6.58682
Ni     3.78379     7.81148     6.75569
Ni     7.67426     7.33608     8.25177
Ni    -3.71401    10.10550     6.91988
Ni     0.23565     9.92237     7.23683
Ni     4.15801     9.94292     7.69469
Ni    -3.24963    -6.76027    10.78750
Ni     0.82906    -7.46668    10.71280
Ni     4.81162    -7.36196    10.48410
Ni    -6.78689    -3.41140    10.58610
Ni    -2.82606    -4.45171    11.50940
Ni     0.53126    -3.91487    10.11620
Ni     5.05658    -4.93688    10.85260
Ni     7.51998    -4.71091    10.12730
Ni    -7.41480     0.56419    10.38710
Ni    -3.68989    -0.64367    11.37110
Ni     0.05724    -0.15090    10.02000
Ni     3.08540    -0.22364    11.37020
Ni     7.41759    -0.66758    10.31900
Ni    -7.79985     4.39501    10.45020
Ni    -4.39337     5.43743    12.00360
Ni     0.27356     4.08585     9.99457
Ni     3.29640     4.40196    11.64640
Ni     7.13259     3.36702    10.47990
Ni    -4.18197     7.25871    10.58330
Ni    -0.28083     7.00415    10.77750
Ni     3.80604     6.53023    10.81650
Ni    -6.45081    -5.62951   -10.30070
Ni    -2.66712    -5.61450   -11.41550
Ni     1.55106    -5.44694   -11.37150
Ni     5.67377    -5.59636   -11.14690
Ni    -5.07457    -1.63944   -11.84770
Ni    -1.87099    -2.24405   -10.32530
Ni     1.68741    -1.51049   -12.28200
Ni     6.17865    -1.51431   -11.22240
Ni    -5.12503     2.43233   -11.70870
Ni    -1.92454     1.36336   -10.47300
Ni     1.86046     2.50362   -12.47750
Ni     5.90574     2.44125   -10.42750
Ni    -4.85632     6.37843   -10.83610
Ni    -2.69587     6.36401   -11.42820
Ni     1.76047     6.26324   -10.68670
Ni     5.86831     6.11133    -9.82409
Ni    -6.12114    -9.02997    -7.34756
Ni    -2.26028    -9.40632    -8.48685
Ni     1.67412    -9.17914    -8.58754
Ni     5.67980    -8.88288    -7.88733
Ni    -9.54666    -5.88935    -6.76946
Ni    -5.77450    -5.66337    -7.08484
Ni    -1.63688    -6.06027    -6.85089
Ni     1.84238    -5.83002    -7.06789
Ni     5.48002    -6.06165    -7.00525
Ni     9.09039    -5.69344    -7.93346
Ni    -8.87827    -1.79519    -9.05484
Ni    -5.56290    -2.11515    -7.41265
Ni    -2.18685    -2.39200    -7.01837
Ni     1.74270    -2.56272    -7.56596
Ni     5.29534    -2.45321    -7.69280
Ni     9.58459    -1.84114    -8.23647
Ni    -8.89764     2.17724    -9.12163
Ni    -5.80953     1.34372    -7.33867
Ni    -2.19661     1.78067    -7.15090
Ni     2.17712     1.57981    -7.71611
Ni     4.79329     1.16971    -7.69829
Ni     9.45878     1.91365    -7.58804
Ni    -8.37696     5.87952    -8.01074
Ni    -5.62691     5.13401    -7.39174
Ni    -2.10911     5.20942    -7.59710
Ni     1.63277     5.51199    -7.53302
Ni     5.17027     5.44544    -7.55620
Ni     9.15501     5.69682    -6.64115
Ni    -5.72486     9.49099    -7.28976
Ni    -1.68948    10.20070    -7.23610
Ni     2.32287    10.44470    -7.47749
Ni     6.29573     9.63035    -6.93112
Ni    -2.41617   -11.69300    -4.52827
Ni     1.61459   -11.18030    -4.13928
Ni    -8.32540    -8.78310    -3.37311
Ni    -5.67749    -8.22015    -3.04400
Ni    -1.54008    -9.56179    -3.46507
Ni     2.32899    -9.15174    -3.18164
Ni     5.20339    -8.91567    -3.21564
Ni     8.92690    -8.67566    -4.52397
Ni    -9.56718    -4.65493    -3.25354
Ni    -5.67555    -5.94503    -3.98638
Ni    -1.71737    -5.73293    -3.63802
Ni     2.00144    -5.58942    -3.51949
Ni     5.93300    -5.76898    -3.24686
Ni     8.59325    -5.27701    -3.37268
Ni   -11.21790    -1.99669    -5.13632
Ni    -9.17639    -2.28646    -3.68194
Ni    -5.69848    -2.13142    -3.61908
Pt    -1.88732    -2.02867    -3.80184
Pt     2.02220    -1.89954    -3.73986
Ni     5.34574    -1.96707    -4.28268
Ni     8.75015    -1.79427    -4.23612
Ni    11.46920    -2.10469    -3.73350
Ni   -11.30320     2.08440    -5.23399
Ni    -9.37447     1.97437    -3.69730
Ni    -5.76780     1.56730    -3.97837
Pt    -2.00776     1.90230    -3.95769
Pt     1.86538     1.90943    -3.84283
Ni     5.60016     2.18452    -3.92974
Ni     8.13726     1.97949    -4.28140
Ni    12.08980     1.12698    -3.69930
Ni    -9.02070     5.03378    -3.58226
Ni    -6.24377     5.60791    -3.66140
Ni    -2.12185     5.49113    -4.01350
Ni     1.64168     5.55194    -4.05997
Ni     5.58281     6.24166    -3.53385
Ni     8.79029     4.20947    -2.89046
Ni    -9.25909     9.01000    -4.59970
Ni    -6.01929     8.36958    -3.89554
Ni    -2.39629     8.62974    -4.13298
Ni     1.48133     8.49250    -3.80423
Ni     5.88369     8.69790    -3.79187
Ni     8.65503     8.60677    -3.14036
Ni    -1.66669    11.97830    -3.03789
Ni     2.34572    12.20470    -3.14501
Ni    -4.93819   -12.13780     0.57249
Ni    -2.96309   -12.51920    -0.05822
Ni     0.81920   -12.39340     0.44488
Ni     5.10368   -11.46100    -0.39804
Ni    -8.23299    -9.24214     0.57101
Ni    -5.93127    -8.39379    -0.00006
Ni    -2.24856    -8.51004     0.10857
Ni     1.83615    -9.08342     0.15819
Ni     5.49649    -8.93975     0.32430
Ni     9.04735    -8.83141    -0.42429
Ni   -11.38590    -5.97578     1.50218
Ni    -9.20854    -5.00069     0.55986
Ni    -6.12086    -5.14209     0.28491
Pt    -1.87137    -5.87632     0.02322
Pt     1.91880    -5.58515     0.13473
Ni     5.80681    -5.76048     0.39497
Ni     9.07583    -5.78448     0.62391
Ni    11.71240    -5.03735    -0.24675
Ni   -11.73210    -1.95135    -0.65593
Ni    -9.61986    -1.62134     0.86078
Pt    -5.79696    -2.03617     0.10469
Pt    -1.88963    -1.86830     0.06208
Pt     1.97937    -1.79663     0.07930
Pt     5.80557    -1.76210     0.11888
Ni     8.32824    -1.73464    -0.09394
Ni    11.51840    -1.78157     0.07818
Ni   -12.37390     1.90880    -0.73193
Ni    -8.48865     1.83673    -0.09594
Pt    -5.91543     1.86044    -0.22462
Pt    -2.05787     1.98247    -0.06949
Pt     1.89911     1.97062     0.01464
Pt     5.76229     2.09625     0.04925
Ni     9.23098     2.64487    -0.12845
Ni    12.06190     0.69688     0.16648
Ni   -11.52820     5.49626    -0.29791
Ni    -9.18831     5.26935     0.37344
Ni    -5.96592     6.02525     0.20404
Pt    -1.85798     5.82433     0.03739
Pt     1.90758     5.82611    -0.06742
Ni     5.55662     5.96133     0.04173
Ni     8.93335     5.38289    -0.12565
Ni    11.35570     5.05065     0.68056
Ni    -9.21055     9.44739    -0.55953
Ni    -5.83046     8.36355     0.46150
Ni    -2.02350     8.25149     0.19307
Ni     1.65417     9.80167     0.90944
Ni     5.89663     9.30488     0.09405
Ni     8.95810     8.86614     0.93709
Ni    -5.55665    11.42290    -0.62206
Ni    -1.54642    12.13220    -0.64534
Ni     2.31961    12.06400    -0.82543
Ni     4.55132    11.67060     0.31045
Ni    -1.67519   -11.59980     3.61607
Ni     2.69711   -11.56620     3.83151
Ni    -8.16731    -9.27349     4.81449
Ni    -5.68573    -8.76092     3.23361
Ni    -1.81893    -9.16634     3.88408
Ni     1.97512    -9.16374     3.70030
Ni     5.38447    -8.96702     4.15739
Ni     8.94609    -8.68755     3.46344
Ni    -8.97518    -5.21007     4.11328
Ni    -5.62649    -5.52416     3.80835
Ni    -1.79340    -5.68668     3.86691
Ni     1.90835    -5.71979     3.94065
Ni     5.43318    -5.51821     3.87962
Ni     8.95776    -5.56305     4.30789
Ni   -11.65580    -1.96039     3.92471
Ni    -9.30756    -2.22826     4.35263
Ni    -5.54074    -1.76506     3.95495
Pt    -1.82233    -1.85375     3.99499
Pt     2.04316    -1.75995     4.03675
Ni     5.93460    -1.77272     3.87647
Ni     8.86618    -2.05516     4.11957
Ni    11.77240    -2.19527     3.33518
Ni   -11.95180     1.97732     3.68989
Ni    -9.09480     1.94294     3.76990
Ni    -5.70302     1.99809     3.93540
Pt    -1.94838     1.93223     3.92047
Pt     1.92395     2.06829     3.82558
Ni     5.76715     2.12407     3.86447
Ni     8.97226     2.17022     3.75334
Ni    11.94780     1.81270     3.93403
Ni    -9.67716     4.98147     3.04607
Ni    -5.93255     5.53779     3.95482
Ni    -1.79498     5.56974     4.22809
Ni     2.12097     5.67878     3.76975
Ni     5.84532     5.83838     3.59049
Ni     9.09388     5.83926     3.56552
Ni    -8.64489     9.21161     3.62001
Ni    -4.63502     9.34552     3.61756
Ni    -2.25606     9.24912     3.48772
Ni     1.85363     9.66890     3.34570
Ni     5.90693     9.41958     3.35976
Ni     9.23716     8.94193     4.87486
Ni    -1.26111    11.31680     3.91523
Ni     2.78718    11.64570     4.12119
Ni    -5.31723    -8.88424     8.18202
Ni    -1.43746    -9.28243     8.24646
Ni     2.59371    -9.83247     7.90752
Ni     6.53671    -9.54862     7.42104
Ni    -8.48802    -5.73152     7.72728
Ni    -5.32679    -5.78986     7.27996
Ni    -1.84840    -5.54741     7.22856
Ni     1.60782    -5.95439     7.38205
Ni     5.13966    -5.52786     7.45324
Ni     9.63007    -6.13420     7.18262
Ni    -9.48356    -1.84839     8.00589
Ni    -5.54406    -1.68549     7.43465
Ni    -2.08766    -1.70241     7.50038
Ni     2.42956    -1.63647     7.31808
Ni     5.42238    -1.66424     7.55987
Ni     9.96111    -2.28351     7.74586
Ni   -10.10420     2.16957     7.96664
Ni    -5.95773     1.72571     7.32378
Ni    -2.08561     1.88426     7.58909
Ni     2.58073     2.02719     7.65596
Ni     5.59985     2.32739     7.26543
Ni     9.87071     1.60164     7.97175
Ni    -9.22621     6.10358     7.26582
Ni    -5.48011     4.03965     7.80354
Ni    -2.12068     5.95754     6.87988
Ni     2.17842     6.03284     6.55592
Ni     5.64844     5.92505     6.91263
Ni     9.28614     5.54272     7.94281
Ni    -5.79440     9.20548     7.29156
Ni    -1.86459     9.47818     8.07312
Ni     2.14282     9.12061     8.21862
Ni     6.06934     8.91098     8.27686
Ni    -5.04364    -4.93959    10.69200
Ni    -1.12362    -5.88111    11.18140
Ni     2.80448    -6.49826    11.16820
Ni     6.90727    -6.82085    10.94160
Ni    -5.94552    -1.18846    10.95820
Ni    -2.17124    -2.24590    12.15670
Ni     2.07672    -2.05986    10.38610
Ni     6.39844    -2.79058    10.55160
Ni    -6.89885     2.49715    11.26050
Ni    -3.04121     1.57501    11.69800
Ni     2.99690     2.08866    11.64120
Ni     6.51186     1.25278    11.07800
Ni    -6.14798     5.89574    10.74480
Ni    -2.28930     6.40417    11.56460
Ni     1.49817     5.77941    11.47370
Ni     5.69291     5.16366    11.00710
Ni    -5.57252   -10.55250    -5.69521
Ni    -2.13760   -10.91380    -6.63555
Ni     1.58990   -10.57270    -6.63677
Ni     5.32264   -10.11020    -6.08223
Ni    -5.23248   -11.46880    -1.63215
Ni    -1.93413   -10.38260    -1.29653
Ni     1.24099   -12.08320    -1.74311
Ni     6.19522   -10.88600    -2.34357
Ni    -5.48919   -11.19550     2.56636
Ni    -2.44899   -10.10780     1.89494
Ni     1.93127   -10.71350     1.74947
Ni     6.04108   -10.95980     1.64096
Ni    -5.11091   -10.75310     6.50311
Ni    -1.58517   -10.58060     6.10156
Ni     2.43213   -11.35160     6.19705
Ni     6.15958   -10.75810     5.53641
Ni    -6.26645    -7.37616    -8.96848
Ni    -2.47551    -7.60398   -10.23010
Ni     1.60615    -7.36195   -10.12470
Ni     5.62912    -7.23251    -9.53862
Ni    -9.00101    -7.46937    -5.10259
Ni    -5.30598    -7.82423    -5.39523
Ni    -1.50298    -7.70649    -5.05119
Ni     2.01194    -7.44460    -5.03369
Ni     5.51760    -7.41745    -5.02129
Ni     9.23666    -7.52433    -6.39747
Ni    -9.05388    -7.95326    -1.25393
Ni    -5.98920    -6.41285    -1.69247
Ni    -1.75866    -7.72205    -2.08660
Ni     2.07001    -7.41862    -1.56193
Ni     5.54298    -7.38500    -1.43668
Ni     9.65300    -7.92745    -2.43342
Ni    -9.24305    -8.83666     2.69016
Ni    -5.81619    -6.94780     1.87679
Ni    -1.87298    -7.51463     2.10239
Ni     2.05916    -7.37767     2.09713
Ni     5.46583    -7.37266     2.25348
Ni     9.88672    -7.98634     1.50970
Ni    -8.63195    -7.58348     6.50228
Ni    -5.44123    -7.45778     5.47377
Ni    -1.89214    -7.50719     5.49452
Ni     1.68684    -7.45118     5.48624
Ni     5.38680    -7.12825     5.81733
Ni     9.46738    -7.58354     5.45414
Ni    -5.22083    -7.05437     9.59786
Ni    -1.18974    -7.94979    10.09450
Ni     2.80538    -8.33391     9.66046
Ni     6.57130    -8.13094     9.13310
Ni    -1.56892    -3.65624   -12.36950
Ni     2.69666    -3.49768   -11.52860
Ni    -7.78001    -3.77226    -9.77102
Ni    -3.94919    -4.39035    -9.82123
Ni    -1.98267    -4.32302    -8.46142
Ni     1.58878    -4.18401    -9.26149
Ni     5.36899    -4.50268    -9.05763
Ni     8.81328    -3.78765    -9.20317
Ni   -11.00410    -4.09591    -6.28644
Ni    -5.71014    -3.89464    -5.65358
Ni    -1.82271    -4.11727    -5.37597
Ni     1.92774    -4.01806    -5.51360
Ni     5.43816    -3.94063    -5.76266
Ni     8.84712    -3.85580    -5.49039
Ni   -11.68010    -4.02967    -1.86435
Ni    -9.65273    -3.06669    -1.11778
Ni    -5.51261    -4.03273    -1.87862
Pt    -1.88893    -3.92038    -1.82013
Pt     1.95869    -3.73534    -1.80291
Ni     5.82532    -3.90689    -1.52783
Ni     8.24589    -3.62910    -1.67905
Ni    11.38240    -3.38909    -1.80723
Ni   -11.84630    -4.03070     2.69722
Ni    -9.31213    -3.52254     2.39733
Ni    -5.76005    -3.64145     2.13850
Pt    -1.89538    -3.74324     1.92617
Pt     2.05695    -3.76998     2.01748
Ni     5.72325    -3.72965     2.13946
Ni     9.03925    -4.05665     2.33556
Ni    11.61770    -3.81556     1.69889
Ni   -11.03360    -3.91800     4.90829
Ni    -5.57302    -3.59699     5.69830
Ni    -1.75584    -3.79505     5.63862
Ni     1.75869    -3.78576     5.82874
Ni     6.10417    -3.06790     5.83367
Ni     8.44405    -3.37272     6.20672
Ni    -8.49777    -3.82263     8.90254
Ni    -5.60126    -3.75010     8.55867
Ni    -1.70922    -3.67915     8.89636
Ni     2.17765    -3.75981     8.39054
Ni     4.63166    -3.60383     9.07124
Ni     9.06044    -4.39461     8.48760
Ni    -0.63025    -3.82720    12.11120
Ni     2.80055    -4.18003    10.94850
Ni    -4.08947     0.42025   -12.37430
Ni    -1.75145     0.41040   -12.76510
Ni     0.56690     0.39182   -12.64600
Ni     5.12956     0.54590   -11.36470
Ni    -7.93673     0.13942    -9.72027
Ni    -5.69114    -0.30369    -9.06935
Ni    -1.86684    -0.20156    -8.56718
Ni     2.08572    -0.89063    -9.80604
Ni     5.23922    -0.66339    -9.25662
Ni     8.96436     0.23786    -8.88283
Ni   -11.04360    -0.03338    -6.49304
Ni    -9.11350    -0.75623    -5.49176
Ni    -5.74519    -0.31543    -5.40425
Pt    -1.82373    -0.19043    -5.83338
Pt     1.98306    -0.06963    -5.70926
Ni     5.00921    -0.50651    -6.12785
Ni     8.47281     0.03733    -5.95402
Ni    11.90650    -0.40022    -5.31522
Ni   -11.92230    -0.04272    -1.92888
Ni    -9.40793    -0.44474    -2.14791
Pt    -5.81722    -0.23106    -1.89689
Pt    -1.90631     0.00243    -1.93308
Pt     1.93783     0.07641    -1.85902
Pt     5.76588     0.30310    -1.91867
Ni     8.22202    -0.02231    -2.49790
Ni    12.04280    -0.45449    -1.81514
Ni   -12.45380    -0.06344     0.38723
Ni    -9.00254     0.53322     1.83242
Pt    -5.88619     0.06149     1.94785
Pt    -1.92204     0.02340     1.94548
Pt     1.91455     0.08998     2.00868
Pt     5.90631     0.10261     1.90337
Ni     8.62991     0.29500     1.85279
Ni    11.96300    -0.27216     2.20627
Ni   -11.70770     0.01959     5.00373
Ni    -9.27896     0.01207     5.41688
Ni    -5.79144     0.20089     5.66327
Pt    -1.80699     0.13897     5.89368
Pt     1.94303     0.30807     5.91121
Ni     5.77037     0.38382     5.78254
Ni     9.15994     0.82627     5.72306
Ni    12.10870    -0.25092     4.90078
Ni    -9.25275     0.22016     8.98263
Ni    -5.28729     0.11388     9.10158
Ni    -1.80879    -1.52163     9.91420
Ni     1.82848     0.13622     8.69451
Ni     5.70364     0.38965     8.94277
Ni     9.09121    -0.47445     8.75436
Ni    -5.28230     1.02266    11.39740
Ni    -1.35499     0.12200    11.83540
Ni     0.94407     0.95952    11.85400
Ni     5.39260    -0.63840    11.19900
Ni    -1.64045     4.52322   -12.41270
Ni     0.65353     4.46139   -12.33280
Ni    -7.87744     4.16502    -9.46585
Ni    -5.68336     3.05737    -8.80855
Ni    -2.18300     3.29685    -9.00294
Ni     1.64751     3.51015    -8.97446
Ni     3.68870     2.43724    -9.63171
Ni     8.99754     4.06020    -8.24932
Ni    -9.36474     3.45732    -5.54576
Ni    -5.89378     3.38928    -5.81409
Ni    -1.92065     3.75080    -5.71164
Ni     1.71681     3.62908    -5.86728
Ni     5.40320     3.75524    -5.82010
Ni     7.92304     3.62023    -6.10873
Ni   -12.16140     4.01839    -1.87721
Ni    -8.47475     3.46825    -1.82365
Ni    -5.96100     3.66961    -2.09977
Pt    -2.05665     3.87106    -1.98869
Pt     1.82581     3.89894    -1.95153
Ni     5.42755     4.04408    -1.97742
Ni     9.63688     2.04330    -2.39566
Ni    10.69620     3.98887    -1.57294
Ni   -12.76030     3.90093     0.34582
Ni    -9.33370     3.17853     1.71750
Ni    -5.62529     3.99816     1.95734
Pt    -2.03272     3.98669     1.93613
Pt     1.95896     3.90013     1.85733
Ni     5.72168     3.96735     2.05478
Ni     9.27752     4.01200     1.99732
Ni    11.80750     3.67404     2.55647
Ni   -10.91380     3.78390     4.53546
Ni    -5.99088     3.61203     5.58534
Ni    -2.11174     3.79310     5.76158
Ni     2.19247     3.81597     5.63612
Ni     5.75633     4.05978     5.36152
Ni     9.06735     4.04551     5.42547
Ni    -9.30711     4.38044     8.75640
Ni    -4.43299     4.22111     9.84004
Ni    -2.07225     2.77931     9.77338
Ni     1.49926     4.09251     7.93558
Ni     5.43687     4.14453     8.88900
Ni     8.88490     3.50299     8.85357
Ni    -2.64279     4.03054    11.84970
Ni     1.17968     3.35765    11.97370
Ni    -5.54342     8.09406    -9.24586
Ni    -1.52543     8.78709    -9.03270
Ni     2.29954     8.69512    -9.13646
Ni     6.03342     7.84661    -8.37507
Ni    -8.94889     7.53842    -6.33443
Ni    -6.06293     6.98299    -5.83058
Ni    -2.09024     7.21093    -6.04408
Ni     1.65010     7.25950    -5.83152
Ni     5.01262     7.45744    -5.75269
Ni     9.39882     7.58682    -5.10752
Ni   -10.11020     8.23408    -2.42374
Ni    -6.22515     7.46057    -1.73249
Ni    -2.42917     7.21043    -2.21922
Ni     2.20810     7.90824    -1.66698
Ni     4.90805     7.93215    -1.83621
Ni     9.48201     8.09148    -1.11995
Ni    -9.50636     8.54482     1.58959
Ni    -6.07271     7.56576     2.80574
Ni    -1.96011     7.17366     2.40998
Ni     2.00839     7.57356     2.06179
Ni     5.87301     7.62760     1.79357
Ni     9.89439     8.07393     2.90850
Ni    -9.04889     7.80222     5.59783
Ni    -5.85061     7.49899     5.40032
Ni    -1.83428     7.65983     5.37539
Ni     2.21291     7.84913     5.01815
Ni     5.71233     7.72585     5.23377
Ni     9.53544     7.41134     6.67910
Ni    -5.87510     7.64391     8.99513
Ni    -2.10111     8.13830    10.02450
Ni     1.84942     7.38406     9.92164
Ni     6.00190     7.04632     9.78976
Ni    -5.53424    10.30550    -5.16377
Ni    -1.67259    11.30230    -5.24126
Ni     2.28196    11.73200    -5.49286
Ni     6.09768    10.80460    -5.01199
Ni    -5.63086    11.21400    -2.95775
Ni    -2.21713     9.69398    -1.68041
Ni     1.37579    10.26760    -2.03523
Ni     6.31584    11.26780    -1.07124
Ni    -5.43759    10.73380     1.53731
Ni    -1.32632    11.93530     1.54679
Ni     2.61332    11.92280     1.57968
Ni     6.84724    11.55990     3.05256
Ni    -5.48896    10.65150     5.46585
Ni    -1.56970    10.64240     6.04064
Ni     2.22395    10.76790     6.57832
Ni     6.05636    10.52320     6.57890
Ni   -10.90620    -6.00339    -4.89295
Ni   -10.57160    -2.13694    -7.37992
Ni   -10.57570     1.93981    -7.40217
Ni   -10.01110     5.55030    -6.35995
Ni   -10.72690    -6.16052    -0.87429
Ni   -11.66400    -1.96943    -2.94726
Ni   -11.70550     2.01052    -2.96267
Ni   -10.93390     5.98251    -2.50340
Ni   -11.44840    -8.00277     2.65583
Ni   -12.17190    -2.02695     1.61139
Ni   -12.54380     1.88488     1.56433
Ni   -10.85240     6.60262     1.60269
Ni   -10.07560    -5.90130     5.89869
Ni   -10.83870    -1.85801     6.07809
Ni   -11.02220     2.04093     5.81959
Ni   -10.18070     5.88702     5.11137
Ni    -8.02316    -5.79558    -8.48736
Ni    -7.05584    -1.74268   -10.55000
Ni    -7.19463     2.25630   -10.65590
Ni    -6.75079     6.18111    -9.62149
Ni    -7.35309    -9.08104    -5.47830
Ni    -7.60167    -5.44550    -5.61250
Ni    -7.32381    -2.18906    -5.47867
Ni    -7.57045     1.42827    -5.56186
Ni    -7.53291     5.08579    -5.81145
Ni    -7.51698     9.21271    -5.96757
Ni    -7.15587    -9.74298    -1.44590
Ni    -7.83360    -4.72204    -1.46906
Ni    -7.48605    -2.18004    -1.82404
Ni    -7.53545     1.45349    -2.29041
Ni    -7.60392     5.60078    -1.58854
Ni    -9.35636    10.46930    -2.63354
Ni    -7.46617   -10.20090     2.72894
Ni    -7.50282    -5.30633     2.21365
Ni    -7.56513    -1.78609     2.51861
Ni    -7.30339     2.18749     2.15578
Ni    -7.43868     5.71960     2.05613
Ni    -7.56604     9.80020     1.45163
Ni    -6.94095    -9.20829     6.68619
Ni    -7.07661    -5.55428     5.64057
Ni    -7.28563    -1.53764     5.55943
Ni    -7.58265     1.73258     5.53082
Ni    -6.98930     5.49771     6.49407
Ni    -7.39838     9.50306     5.49855
Ni    -6.87404    -5.51159     9.49328
Ni    -7.90161    -1.64110     9.66733
Ni    -8.62524     2.39051     9.79566
Ni    -7.46513     6.05704     8.90510
Ni    -2.80851    -1.58975   -12.55350
Ni    -2.99179     2.43684   -12.50070
Ni    -4.33648    -8.57011    -9.01646
Ni    -3.71477    -6.21871    -8.32389
Ni    -3.75984    -2.17247    -8.87710
Ni    -3.89919     1.55693    -8.93773
Ni    -3.82023     4.91526    -9.34859
Ni    -3.60903     9.35281    -8.23831
Ni    -3.42063    -9.52264    -5.05578
Ni    -3.80690    -5.89149    -5.65921
Ni    -3.98276    -2.15801    -5.43730
Ni    -4.01822     1.56004    -5.56069
Ni    -3.87474     5.50236    -5.72936
Ni    -4.11550     8.32274    -5.79583
Ni    -3.04019   -12.21590    -2.24642
Ni    -3.70363    -9.31851    -2.48560
Ni    -3.61917    -5.76826    -1.91378
Pt    -3.77374    -2.05824    -1.88408
Pt    -3.91242     1.89260    -2.03920
Ni    -4.24502     5.41517    -1.98565
Ni    -4.28740     8.78881    -2.39680
Ni    -3.65603    11.81990    -1.86185
Ni    -3.48402   -12.20980     2.30844
Ni    -4.04374    -8.42646     1.64502
Ni    -3.71665    -5.56217     2.16507
Pt    -3.87660    -1.90476     2.00538
Pt    -3.96521     1.93108     1.89999
Ni    -4.05138     5.77036     1.92518
Ni    -3.96136     8.17659     1.80272
Ni    -3.54784    11.87330     0.47944
Ni    -3.65387    -9.11431     5.49912
Ni    -3.69194    -5.66674     5.58120
Ni    -3.82635    -1.71835     5.74605
Ni    -3.98839     1.98942     5.74562
Ni    -4.28151     5.46528     5.95465
Ni    -3.45752    11.08790     4.79678
Ni    -3.34077    -8.46941     9.37554
Ni    -3.48805    -5.29600     8.95497
Ni    -3.80983    -2.27932     9.06464
Ni    -4.14967     2.05133     8.82270
Ni    -4.17626     6.13860     8.33350
Ni    -3.94993     8.81002     8.81429
Ni    -4.49754    -2.86230    11.41730
Ni    -4.79750     3.16747    11.97250
Ni    -0.52526    -4.33887   -10.33250
Ni    -0.53372    -1.63960   -12.64920
Ni    -0.60637     2.37796   -12.67570
Ni    -0.36510     6.34051   -11.62610
Ni    -0.39749    -8.41345    -9.26593
Ni    -0.02040    -6.06432    -8.79952
Ni    -0.33333    -2.34227    -8.67548
Ni    -0.30461     1.74598    -8.64984
Ni    -0.10847     5.33118    -9.38574
Ni     0.38709     9.47686    -8.19580
Ni    -0.36038   -11.31240    -5.43230
Ni     0.52980    -9.20658    -4.89305
Ni     0.14665    -5.76870    -5.34109
Pt     0.13624    -2.02925    -5.73317
Pt     0.02132     1.75295    -5.89152
Ni    -0.19974     5.61413    -5.84176
Ni    -0.28623     8.80505    -5.88689
Ni     0.36679    12.09550    -4.41191
Ni    -0.93537   -12.59960    -1.05184
Ni     0.29581    -9.29735    -1.80804
Pt     0.12874    -5.69103    -1.79529
Pt     0.00473    -1.90093    -1.87807
Pt    -0.06852     1.99567    -1.86528
Pt    -0.03032     5.83546    -2.02103
Ni    -0.17935     8.39593    -1.94388
Ni     0.33175    12.37220    -1.96373
Ni    -1.29060   -12.28860     1.41613
Ni     0.05867    -9.03482     2.20212
Pt    -0.02773    -5.60310     2.02885
Pt     0.06510    -1.87335     2.03733
Pt    -0.10770     2.06878     1.94466
Pt     0.06102     5.83006     1.90497
Ni    -0.09965     8.82107     2.17619
Ni     0.55587    12.29300     0.48563
Ni     0.36120   -11.58640     5.04953
Ni     0.21753    -9.26500     5.17956
Ni    -0.03360    -5.85309     5.61046
Pt     0.10229    -1.80146     5.88956
Pt    -0.03938     2.24971     5.86687
Ni     0.09442     5.14903     6.18785
Ni    -0.12177     9.04223     4.74951
Ni     0.66604    11.18500     5.13339
Ni     0.68652    -9.07902     8.96711
Ni    -0.21142    -5.93877     8.95903
Ni     0.22860    -2.10917     8.62352
Ni     0.31462     1.97161     8.84451
Ni     0.36692     6.03292     8.45809
Ni    -0.02739     8.27606     8.87735
Ni     0.99280    -5.44242    11.75920
Ni     0.08102    -1.61274    11.92910
Ni    -0.86297     2.49383    11.88560
Ni    -0.55807     4.86739    11.86330
Ni     3.99870    -1.49754   -11.67300
Ni     4.14627     2.45469   -11.89110
Ni     3.66582    -8.34484    -9.34327
Ni     3.39260    -6.08701    -8.77905
Ni     3.50703    -2.69234    -9.33482
Ni     1.51212     1.40007   -10.29080
Ni     3.48096     5.26118    -9.19868
Ni     4.24020     9.39802    -8.22476
Ni     3.19640    -9.73834    -5.25301
Ni     3.76561    -5.70100    -5.36103
Ni     3.51866    -2.34495    -5.74501
Ni     3.92164     1.93742    -5.69175
Ni     3.42094     5.58481    -5.75652
Ni     3.08051     9.20567    -5.37483
Ni     3.36099   -11.34460    -2.36685
Ni     3.74260    -9.09402    -1.36145
Ni     4.09138    -5.48821    -1.60693
Pt     3.96171    -1.85204    -1.91073
Pt     3.80196     2.08200    -1.90912
Ni     3.58769     5.84666    -2.02698
Ni     3.61201     9.69614    -3.07131
Ni     4.40113    11.79460    -2.08872
Ni     3.99472   -11.74020     1.79485
Ni     3.74539    -9.09934     2.21459
Ni     3.70958    -5.59592     2.16352
Pt     3.97581    -1.82425     2.05792
Pt     3.87139     2.02618     1.91512
Ni     3.74737     5.83791     1.82167
Ni     3.94074     9.48176     1.99406
Ni     4.53731    11.82880     2.66133
Ni     3.44701    -9.13525     5.59736
Ni     3.43702    -5.68788     5.71698
Ni     4.20743    -1.61371     5.53170
Ni     3.93582     1.93333     5.57225
Ni     4.01099     6.04483     5.14425
Ni     3.96065     9.55777     5.06734
Ni     4.67859    -9.21859     8.82687
Ni     3.44317    -5.83795     9.03462
Ni     3.82465    -1.00948     9.24121
Ni     3.11973     3.55884     9.45579
Ni     3.54753     5.84723     8.54124
Ni     4.06091     8.10631     9.20651
Ni     4.19520    -2.45291    11.10020
Ni     5.01933     2.98746    11.20160
Ni     7.35869    -5.63244    -9.53675
Ni     8.02721    -1.61704    -9.93500
Ni     8.06841     2.34363    -9.36382
Ni     7.53434     5.98601    -8.31122
Ni     7.35986    -9.01171    -6.38096
Ni     7.23607    -5.68503    -5.36758
Ni     7.08305    -2.18779    -6.01938
Ni     6.51402     1.57823    -6.10801
Ni     6.80495     5.89505    -5.74689
Ni     7.84569     9.32509    -5.13559
Ni     8.11291    -9.66048    -2.39796
Ni     7.51457    -5.83845    -1.42882
Ni     6.87070    -1.81894    -2.34673
Ni     7.25361     2.36915    -1.94782
Ni     7.21158     5.51317    -1.80701
Ni     8.04702     9.78295    -1.04442
Ni     8.26036    -9.77167     1.57901
Ni     7.28593    -5.60567     2.25660
Ni     7.56629    -2.02208     2.15318
Ni     7.58577     2.26012     1.76272
Ni     7.37758     5.65243     1.82751
Ni     8.48777     9.98615     2.85425
Ni     7.89523    -9.24724     5.42839
Ni     6.81950    -5.34118     5.89768
Ni     7.58983    -1.20873     5.92355
Ni     7.43252     2.21853     5.59068
Ni     7.55110     6.17210     5.64670
Ni     7.74845     8.97812     6.65485
Ni     8.29054    -6.52571     9.11866
Ni     8.39794    -2.54341     9.50275
Ni     8.28391     1.45333     9.70045
Ni     7.58066     5.37630     9.48282
Ni    10.52670    -5.57743    -6.09198
Ni    10.62840    -2.26241    -5.84880
Ni    11.05090     1.69185    -5.74833
Ni    10.45980     5.47753    -4.62077
Ni    10.92360    -5.66609    -2.28401
Ni     9.79521    -1.76726    -1.97698
Ni    11.94500     1.96973    -1.73670
Ni    11.04250     6.28727    -1.19641
Ni    11.33080    -6.21926     1.65695
Ni     9.92806    -1.74314     1.91777
Ni    10.60070     1.72806     1.83014
Ni    11.27300     5.88759     2.94157
Ni    11.04000    -5.90293     5.41193
Ni    10.90800    -2.25256     5.47103
Ni    11.38420     1.68979     6.17519
Ni    10.81020     5.59180     6.17454
