959
 ghb 
Pt    -4.07730    -8.13744   -10.94940
Pt     0.00507    -7.88283   -11.10600
Pt     3.94935    -8.04373   -10.94640
Pt    -7.74253    -4.11193   -11.11770
Pt    -4.06448    -4.15670   -11.27950
Pt     0.08928    -3.91834   -11.06080
Pt     3.93691    -4.11375   -11.21400
Pt     8.04063    -4.22555   -10.95270
Pt    -7.79433    -0.05515   -11.08330
Pt    -3.89871    -0.04020   -11.29420
Pt     0.06404    -0.12803   -11.29770
Pt     3.96655    -0.08537   -11.14950
Pt     7.79935    -0.14422   -11.07390
Pt    -7.73623     3.94314   -11.00970
Pt    -3.89425     3.94184   -11.20900
Pt     0.05888     3.82008   -11.28670
Pt     4.07909     3.92860   -11.28740
Pt     7.80934     3.95815   -11.01390
Pt    -3.98059     7.97666   -11.06410
Pt     0.04437     7.74949   -11.16040
Pt     4.08391     7.96443   -11.16980
Pt    -3.82089   -11.81600    -6.70864
Pt    -0.06276   -11.71760    -6.90909
Pt     4.04644   -11.76010    -6.79137
Pt    -7.87774    -7.90373    -7.01576
Pt    -4.02100    -7.80597    -7.06694
Pt    -0.02035    -7.93527    -7.29644
Pt     3.97473    -7.84083    -7.10508
Pt     7.97875    -8.00523    -6.96650
Pt   -11.70720    -4.02957    -6.95779
Pt    -7.88039    -3.89805    -7.22061
Pt    -3.98454    -3.95856    -7.31601
Pt     0.09141    -3.96422    -7.48335
Pt     3.97403    -4.00764    -7.38524
Pt     7.91339    -4.04152    -7.20950
Pt    11.80760    -4.05264    -6.90274
Pt   -11.60570    -0.11060    -7.04987
Pt    -7.91740    -0.00417    -7.27447
Pt    -3.96810    -0.00064    -7.49569
Pt     0.00798    -0.04037    -7.45584
Pt     4.03677    -0.07316    -7.42391
Pt     7.92705     0.05046    -7.28856
Pt    11.75250     0.01616    -7.11808
Pt   -11.66600     3.90836    -6.94542
Pt    -7.86789     3.86159    -7.25618
Pt    -3.80603     3.93232    -7.36564
Pt     0.09371     3.93527    -7.42588
Pt     3.93432     3.89407    -7.34875
Pt     7.83879     4.04470    -7.23634
Pt    11.65050     4.01875    -6.96914
Pt    -7.86306     7.82348    -7.21611
Pt    -3.89553     7.75425    -7.27463
Pt     0.13516     7.81004    -7.31599
Pt     3.91049     7.92896    -7.18051
Pt     7.84595     7.92849    -6.98916
Pt    -3.97696    11.63870    -7.05827
Pt    -0.07767    11.76800    -7.08270
Pt     3.85373    11.69260    -7.01249
Pt    -7.93933   -11.52470    -2.85266
Pt    -3.81602   -11.56610    -3.03250
Pt     0.13988   -11.42320    -2.88265
Pt     3.83759   -11.46980    -3.06617
Pt     7.88820   -11.69970    -2.83442
Pt   -11.67340    -7.76557    -2.94051
Pt    -7.81136    -7.71401    -3.11786
Pt    -3.92137    -7.68954    -3.24311
Pt     0.07984    -7.63043    -3.31457
Pt     4.00461    -7.68380    -3.36701
Pt     7.87657    -7.81485    -3.08322
Pt    11.58350    -7.81688    -2.64527
Pt   -11.47840    -3.78278    -3.09671
Pt    -7.72988    -3.82175    -3.28497
Pt    -3.89001    -3.84315    -3.52952
Pt     0.03181    -3.73171    -3.62768
Pt     3.96318    -3.84481    -3.50177
Pt     7.72990    -3.94023    -3.29330
Pt    11.58930    -3.79997    -3.11939
Pt   -11.45990    -0.02637    -2.96164
Pt    -7.68313     0.02831    -3.40117
Pt    -3.78445     0.02893    -3.63349
Pt    -0.05091    -0.06544    -3.65315
Pt     3.89336     0.04750    -3.56163
Pt     7.71235     0.03830    -3.39972
Pt    11.48620     0.10285    -3.03151
Pt   -11.66790     3.77044    -3.24341
Pt    -7.73033     3.93991    -3.47508
Pt    -3.75868     3.74863    -3.43942
Pt    -0.01768     3.77835    -3.58748
Pt     3.86813     3.76349    -3.64442
Pt     7.63398     3.88214    -3.39177
Pt    11.49320     3.85517    -2.98098
Pt   -11.54100     7.91373    -3.20902
Pt    -7.79232     7.61372    -3.19571
Pt    -3.78445     7.58249    -3.41183
Pt    -0.11710     7.66743    -3.38893
Pt     3.83964     7.59332    -3.17327
Pt     7.65258     7.74610    -3.06459
Pt    11.56800     7.95362    -3.03859
Pt    -7.59085    11.42900    -2.95712
Pt    -3.90679    11.37780    -3.19185
Pt    -0.01330    11.53030    -3.04785
Pt     3.63232    11.51650    -3.02849
Pt     7.60929    11.56670    -2.78957
Ni    -7.29791   -11.66310     0.13986
Ni    -4.68859   -11.39550     0.22065
Ni    -0.01420   -11.29420     0.00874
Ni     4.92642   -11.64660    -0.04559
Ni     7.33074   -11.71580    -0.09305
Ni   -11.88520    -7.33762    -0.00938
Ni    -7.80359    -7.73101     0.10164
Ni    -3.79543    -7.32749    -0.02249
Ni    -0.04564    -7.29397     0.02147
Ni     3.63109    -7.31631     0.04835
Ni     7.70417    -7.61045     0.23257
Ni    11.62960    -7.11580    -0.08138
Ni   -11.36200    -4.51985    -0.15958
Ni    -7.17159    -3.50574     0.00469
Ni    -3.60833    -3.63417    -0.07136
Ni    -0.02081    -3.61216    -0.00389
Ni     3.71183    -3.65791    -0.01506
Ni     7.48679    -3.42140    -0.02046
Ni    11.36710    -4.61164     0.05943
Ni   -11.22000    -0.00005     0.09912
Ni    -7.56609     0.05072    -0.15636
Ni    -3.76104     0.12759    -0.00647
Ni     0.09940    -0.04250    -0.04759
Ni     3.72029     0.08312     0.01878
Ni     7.48676     0.06700     0.02157
Ni    11.22950    -0.08837    -0.15603
Ni   -11.37070     4.52530     0.30330
Ni    -7.30124     3.73643    -0.02030
Ni    -3.72837     3.72699    -0.16444
Ni    -0.14068     3.82527     0.09794
Ni     3.59601     3.79914     0.09395
Ni     7.33504     3.61619     0.15679
Ni    11.37230     4.73144    -0.17094
Ni   -11.59320     7.34690    -0.40831
Ni    -7.63407     7.61958    -0.03591
Ni    -3.76364     7.37429     0.29591
Ni    -0.09329     7.46295    -0.02182
Ni     3.52704     7.38267    -0.07648
Ni     7.66254     7.71682     0.03704
Ni    11.65840     7.33682    -0.00220
Ni    -7.50068    11.79240     0.33344
Ni    -5.65970    11.16610    -1.22472
Ni    -0.11673    11.15570     0.03466
Ni     4.59232    11.44830     0.10686
Ni     7.00367    11.71920     0.07991
Pt    -7.83939   -11.64820     2.95642
Pt    -3.75795   -11.69020     3.14292
Pt     0.12034   -11.54070     2.98477
Pt     3.85816   -11.77870     3.18203
Pt     7.95536   -11.75550     3.02138
Pt   -11.43220    -7.78714     2.71405
Pt    -7.76980    -7.79316     2.91291
Pt    -3.90448    -7.67847     3.28687
Pt    -0.01110    -7.80706     3.41881
Pt     3.94107    -7.64610     3.21583
Pt     7.86154    -7.75161     3.10509
Pt    11.77660    -7.72632     3.03732
Pt   -11.47530    -3.70475     3.16326
Pt    -7.70354    -3.78278     3.18370
Pt    -3.88844    -3.88773     3.52039
Pt    -0.06399    -3.87853     3.56084
Pt     3.86739    -3.74415     3.39109
Pt     7.86800    -3.75837     3.41667
Pt    11.54930    -3.81696     3.13360
Pt   -11.41950     0.00012     2.98311
Pt    -7.62402     0.11029     3.48564
Pt    -3.80038     0.03418     3.56723
Pt     0.00611     0.07119     3.62706
Pt     3.88562     0.00691     3.51859
Pt     7.74858     0.11384     3.46854
Pt    11.63490     0.00005     3.01946
Pt   -11.52570     3.77803     3.23760
Pt    -7.78841     3.88145     3.42935
Pt    -3.78376     3.86474     3.60373
Pt     0.04450     3.81727     3.38955
Pt     3.87151     3.94226     3.60705
Pt     7.71486     3.92338     3.47949
Pt    11.56490     3.70435     2.96884
Pt   -11.65600     7.86824     2.95097
Pt    -7.77448     7.76880     3.20451
Pt    -3.81869     7.71505     3.44328
Pt    -0.03691     7.70701     3.52116
Pt     3.78968     7.70550     3.39541
Pt     7.66498     7.69332     3.13554
Pt    11.50230     7.70883     2.96944
Pt    -8.00873    11.56050     2.92182
Pt    -3.83120    11.59530     3.23528
Pt     0.10811    11.64610     3.15286
Pt     3.76569    11.59450     3.14760
Pt     7.78120    11.50820     2.90696
Pt    -3.91528   -11.82470     6.82001
Pt     0.07933   -11.81140     6.98092
Pt     4.02647   -11.93080     6.95519
Pt    -7.92558    -7.86949     7.00354
Pt    -3.91844    -7.96330     7.24858
Pt     0.05219    -7.90712     7.16038
Pt     3.98575    -7.91220     7.19419
Pt     7.88044    -7.96250     6.98579
Pt   -11.75760    -3.96957     6.93992
Pt    -7.89035    -3.96258     7.24400
Pt    -3.98670    -3.92123     7.40237
Pt    -0.03032    -4.01474     7.38384
Pt     3.98686    -4.00456     7.40372
Pt     7.89868    -3.81086     7.18809
Pt    11.76070    -4.01739     7.02641
Pt   -11.79150    -0.08675     7.03020
Pt    -7.87508    -0.02637     7.28274
Pt    -3.89462    -0.03460     7.46676
Pt    -0.06745    -0.02042     7.38278
Pt     4.00468    -0.03235     7.36181
Pt     7.92244    -0.00847     7.36966
Pt    11.78190    -0.00179     6.95163
Pt   -11.82300     3.78335     7.02575
Pt    -8.04185     3.88705     7.27116
Pt    -3.98788     3.98881     7.46031
Pt     0.01447     4.01141     7.56963
Pt     3.88045     4.03756     7.44219
Pt     7.98555     3.94223     7.21672
Pt    11.96730     3.98126     6.91048
Pt    -7.98536     7.87760     7.20741
Pt    -4.04329     7.99459     7.23977
Pt    -0.03529     8.07920     7.34805
Pt     3.95077     7.86153     7.27503
Pt     7.94281     7.92055     7.16233
Pt    -4.07228    11.82330     6.87915
Pt     0.01989    11.74170     7.04953
Pt     3.90066    11.86300     7.01969
Pt    -4.02435    -8.06169    11.03120
Pt     0.11484    -7.92861    11.04710
Pt     4.12588    -8.01056    11.02040
Pt    -7.79593    -4.10836    11.20240
Pt    -3.96778    -4.11359    11.21320
Pt     0.00573    -3.98946    11.22300
Pt     4.01750    -4.00895    11.22100
Pt     8.03939    -4.10757    10.99380
Pt    -7.95724     0.00143    11.05260
Pt    -3.85530    -0.03991    11.20200
Pt     0.01214    -0.08243    11.28520
Pt     3.92251    -0.07805    11.16710
Pt     7.97395    -0.01402    11.23840
Pt    -8.11389     3.98344    11.09660
Pt    -3.99106     3.94067    11.10770
Pt    -0.08803     3.97451    11.19630
Pt     4.07246     3.94795    11.37840
Pt     7.90619     4.05178    10.99650
Pt    -4.20030     7.98802    10.97950
Pt    -0.06323     7.88497    11.20050
Pt     3.94942     8.01304    10.98480
Pt    -5.92833    -6.17297   -11.07160
Pt    -1.97393    -5.85541   -11.13200
Pt     2.01088    -6.09777   -11.20630
Pt     5.94915    -6.13017   -11.09990
Pt    -5.91763    -2.07212   -11.15350
Pt    -1.99775    -2.13709   -11.26160
Pt     2.03223    -2.03120   -11.19300
Pt     6.08599    -2.18905   -11.22660
Pt    -5.85370     1.99987   -11.39200
Pt    -1.89201     1.95497   -11.29700
Pt     2.06742     2.00176   -11.38640
Pt     5.97048     1.91120   -11.18440
Pt    -5.83735     5.86059   -11.16400
Pt    -1.91247     5.84707   -11.18810
Pt     2.02801     5.84310   -11.24320
Pt     5.99890     5.98792   -11.13000
Pt    -5.75002    -9.87853    -6.84880
Pt    -1.87414    -9.79676    -7.03205
Pt     2.05466    -9.88446    -6.99118
Pt     6.01159    -9.92086    -6.99548
Pt    -9.95059    -6.07275    -7.07004
Pt    -5.93822    -5.92875    -7.23207
Pt    -1.96393    -5.90600    -7.26455
Pt     1.99801    -5.91495    -7.32866
Pt     5.86927    -6.04122    -7.18235
Pt     9.97272    -6.12750    -7.02501
Pt    -9.86861    -2.06182    -7.27195
Pt    -5.88573    -2.02103    -7.40860
Pt    -1.98109    -2.01014    -7.41545
Pt     2.06150    -1.95036    -7.55289
Pt     6.00303    -2.09494    -7.31492
Pt     9.96107    -2.02277    -7.19307
Pt    -9.86957     1.88747    -7.23785
Pt    -5.84703     1.96183    -7.27924
Pt    -1.94544     1.89217    -7.46441
Pt     2.06234     1.89015    -7.38945
Pt     5.93200     1.97848    -7.29494
Pt     9.83186     2.01204    -7.32446
Pt    -9.74378     5.82836    -7.19422
Pt    -5.83991     5.82868    -7.15728
Pt    -1.86123     5.89179    -7.32207
Pt     2.05055     5.95276    -7.32728
Pt     5.76933     6.00869    -7.22041
Pt     9.68675     5.97170    -6.99152
Pt    -5.84258     9.76135    -7.27707
Pt    -1.91029     9.76259    -7.20097
Pt     1.84085     9.81263    -7.18143
Pt     5.78593     9.89137    -6.98961
Pt    -1.81367   -13.37690    -2.72746
Pt     1.95144   -13.40700    -2.55010
Pt    -9.83371    -9.70791    -3.11332
Pt    -5.91505    -9.68297    -2.94513
Pt    -1.84227    -9.57415    -3.07511
Pt     1.95000    -9.42600    -3.18401
Pt     5.82786    -9.66960    -2.90059
Pt     9.80447    -9.85979    -3.05667
Pt    -9.72807    -5.81026    -3.03790
Pt    -5.78645    -5.80041    -3.38894
Pt    -1.94560    -5.75192    -3.41396
Pt     1.93933    -5.73070    -3.52145
Pt     5.87160    -5.78076    -3.24377
Pt     9.75895    -5.97572    -2.89404
Pt   -13.36260    -1.89326    -2.79772
Pt    -9.54667    -1.92843    -3.09349
Pt    -5.72583    -1.87306    -3.48524
Pt    -1.92231    -1.86137    -3.63690
Pt     1.97109    -1.91956    -3.60391
Pt     5.82173    -1.97786    -3.40671
Pt     9.67486    -1.88732    -3.36573
Pt    13.40330    -1.82954    -2.78027
Pt   -13.44580     1.72853    -2.88641
Pt    -9.66130     1.94878    -3.38499
Pt    -5.85177     1.99976    -3.52844
Pt    -1.83414     1.80171    -3.51127
Pt     1.93664     1.86920    -3.59200
Pt     5.80997     1.96376    -3.55250
Pt     9.52608     1.93568    -3.26413
Pt    13.34710     1.95056    -2.87158
Pt    -9.79296     5.79968    -2.99888
Pt    -5.79929     5.78837    -3.43262
Pt    -1.93123     5.63644    -3.46152
Pt     1.84317     5.72321    -3.50414
Pt     5.75835     5.69418    -3.31781
Pt     9.61090     5.85401    -2.85325
Pt    -9.66716     9.71085    -3.25194
Pt    -5.76648     9.37187    -3.18104
Pt    -2.03213     9.60777    -3.39701
Pt     1.87755     9.59823    -3.21867
Pt     5.75452     9.71123    -2.88065
Pt     9.58509     9.69828    -3.11420
Pt    -1.85717    13.27450    -2.69538
Pt     1.85915    13.36350    -2.79778
Ni    -5.89648   -13.60590     0.06080
Ni    -1.96394   -13.80090    -0.25488
Ni     1.90546   -13.55310     0.14388
Ni     6.02876   -13.91440    -0.02331
Ni   -11.44510    -9.44922    -0.86332
Ni    -6.12315    -9.52128     0.05829
Ni    -1.88235    -9.42383    -0.00160
Ni     2.06385    -9.25674     0.06548
Ni     6.07286    -9.59389     0.06556
Ni     9.42782   -11.17190    -0.71050
Ni   -13.49990    -5.67858     0.02870
Ni    -9.55486    -5.99427     0.16300
Ni    -5.38945    -5.35017     0.03112
Ni    -1.80950    -5.47790     0.02995
Ni     1.78565    -5.38790     0.02461
Ni     5.36645    -5.50100     0.08342
Ni     9.35973    -5.94380    -0.02437
Ni    13.56120    -5.81504    -0.19190
Ni   -13.73560    -1.96513     0.18169
Ni    -9.16384    -1.86689    -0.14509
Ni    -5.47310    -1.70300     0.07893
Ni    -1.78884    -1.85013    -0.08444
Ni     1.78912    -1.80653    -0.03428
Ni     5.49290    -1.69022    -0.07501
Ni     9.37157    -1.70256    -0.04838
Ni    13.80600    -1.99054    -0.16525
Ni   -13.53690     1.96907    -0.00034
Ni    -9.26032     1.92103     0.15088
Ni    -5.68614     1.82673     0.01126
Ni    -1.71374     1.70157     0.03913
Ni     1.86990     1.87789     0.04301
Ni     5.58916     1.94032    -0.00214
Ni     9.28486     1.86348     0.00453
Ni    13.63200     1.99001    -0.12272
Ni   -13.26940     5.86789    -0.06296
Ni    -9.55145     6.05542     0.00261
Ni    -5.32611     5.56717     0.13162
Ni    -1.73556     5.58257    -0.03166
Ni     1.59768     5.57855    -0.02899
Ni     5.31097     5.41857     0.04789
Ni     9.38870     5.95663    -0.13799
Ni    13.68170     5.75631    -0.09761
Ni    -9.64526    11.63150     1.17785
Ni    -5.87200     9.50391     0.33650
Ni    -1.90755     9.23866     0.14348
Ni     1.69215     9.35805    -0.11303
Ni     5.82413     9.45137     0.10827
Ni    11.57890     9.53360     1.47724
Ni    -5.84992    13.29150    -0.15776
Ni    -1.98135    13.48940    -0.07048
Ni     1.86070    13.89380    -0.05273
Ni     5.67144    13.73430     0.05879
Pt    -1.86772   -13.47600     2.73493
Pt     1.91623   -13.44020     2.67267
Pt    -9.70483    -9.75396     3.21481
Pt    -5.83501    -9.75188     2.93966
Pt    -1.95809    -9.70635     3.11294
Pt     2.03250    -9.68419     3.22468
Pt     5.86911    -9.77232     2.93868
Pt     9.77503    -9.69566     2.97872
Pt    -9.60070    -5.74945     2.92837
Pt    -5.83783    -5.74649     3.17029
Pt    -1.96063    -5.73990     3.51692
Pt     1.92254    -5.65739     3.50322
Pt     5.89697    -5.67539     3.29155
Pt     9.72686    -5.90746     2.99931
Pt   -13.45370    -1.85803     2.76839
Pt    -9.54767    -1.84910     3.28524
Pt    -5.77912    -1.84172     3.52939
Pt    -1.82447    -2.02765     3.61910
Pt     1.94031    -1.84573     3.53047
Pt     5.85763    -1.91918     3.48838
Pt     9.74357    -1.87510     3.22739
Pt    13.42480    -2.01932     2.82052
Pt   -13.37380     1.92830     2.55770
Pt    -9.58677     1.90192     3.22047
Pt    -5.68744     1.96153     3.58022
Pt    -1.93679     1.91417     3.55545
Pt     1.90183     1.96149     3.57113
Pt     5.75565     1.98231     3.49019
Pt     9.77149     2.00610     3.20794
Pt    13.60970     1.84963     2.61036
Pt    -9.75431     5.88335     3.20536
Pt    -5.71656     5.70849     3.43200
Pt    -1.86160     5.76630     3.62146
Pt     1.93792     5.69341     3.64203
Pt     5.79853     5.89464     3.48178
Pt     9.65676     5.75158     3.12065
Pt    -9.78883     9.64089     2.90596
Pt    -5.81976     9.71437     3.04107
Pt    -1.87350     9.62768     3.25134
Pt     1.85459     9.63537     3.37573
Pt     5.72562     9.64960     3.00319
Pt     9.59960     9.58617     3.06868
Pt    -1.88732    13.44720     2.71687
Pt     1.88521    13.57400     2.86409
Pt    -5.86729    -9.85782     6.96745
Pt    -1.91231    -9.92349     7.12829
Pt     2.03969    -9.87991     7.09748
Pt     5.91799    -9.84664     6.93560
Pt    -9.77367    -5.85407     6.94832
Pt    -5.88986    -5.97952     7.14267
Pt    -2.02442    -5.91472     7.39709
Pt     1.95948    -5.93089     7.32692
Pt     6.03135    -5.96827     7.18231
Pt     9.78109    -5.89372     7.01019
Pt    -9.86283    -1.95944     7.19215
Pt    -5.88639    -1.98410     7.35105
Pt    -1.99617    -1.97818     7.44567
Pt     1.91185    -1.97968     7.41169
Pt     5.84678    -1.92859     7.44740
Pt     9.87896    -1.97205     7.22610
Pt    -9.83992     1.86978     7.17471
Pt    -5.87069     1.92865     7.43448
Pt    -1.92703     2.05084     7.46979
Pt     2.03216     1.97341     7.46665
Pt     5.88761     2.03911     7.40936
Pt    10.07660     2.02634     7.24758
Pt    -9.91455     5.80504     6.99480
Pt    -5.94019     5.89590     7.29835
Pt    -1.97255     5.96419     7.37272
Pt     1.87305     5.95895     7.42084
Pt     5.90147     5.88795     7.36134
Pt     9.95421     5.80979     6.89554
Pt    -6.02059     9.92071     7.07927
Pt    -2.04525     9.98222     7.22640
Pt     1.95621     9.90072     7.19789
Pt     5.89919     9.98182     7.10140
Pt    -5.88806    -6.14090    11.13560
Pt    -1.85952    -6.15445    11.22680
Pt     2.13039    -6.03969    11.24520
Pt     5.99987    -6.01692    10.97430
Pt    -6.09150    -2.10787    11.22890
Pt    -1.89925    -2.12097    11.29390
Pt     1.97957    -2.11176    11.29670
Pt     6.07879    -2.11065    11.15620
Pt    -5.94053     1.98883    11.19460
Pt    -2.02555     1.84638    11.20000
Pt     2.00268     1.99416    11.22220
Pt     5.96063     1.94479    11.29140
Pt    -6.03785     5.88522    10.97690
Pt    -2.18525     6.04818    11.35620
Pt     1.98754     6.07098    11.27940
Pt     5.93595     5.97200    11.09110
Pt    -5.86657   -11.78490    -4.73510
Pt    -1.91040   -11.65220    -4.91644
Pt     2.03209   -11.62770    -5.00038
Pt     5.94539   -11.67510    -4.73439
Ni    -5.98437   -12.25110    -1.81610
Ni    -2.06496   -11.44910    -1.22704
Ni     2.09052   -11.30030    -1.17644
Ni     5.85885   -12.60360    -2.01579
Ni    -5.94296   -12.46580     2.13374
Ni    -2.07459   -11.52190     1.24304
Ni     2.39911   -11.40230     1.17243
Ni     6.10014   -12.61300     2.13074
Pt    -5.86892   -11.68090     4.90499
Pt    -1.79357   -11.70580     4.96957
Pt     1.97946   -11.79270     5.03632
Pt     5.92599   -11.75690     4.82958
Pt    -5.99036    -8.06798    -8.95302
Pt    -1.97158    -7.91651    -9.19582
Pt     1.99124    -7.94640    -9.10735
Pt     6.05057    -7.99685    -9.02536
Pt    -9.87002    -7.78345    -5.05036
Pt    -5.91025    -7.79136    -5.07620
Pt    -1.93355    -7.75966    -5.15593
Pt     1.92658    -7.80108    -5.29200
Pt     5.96638    -7.80883    -5.05366
Pt     9.88570    -7.83729    -4.86488
Ni    -9.75176    -7.88632    -1.23189
Ni    -5.72563    -7.60494    -1.27638
Ni    -1.90362    -7.47248    -1.54138
Ni     1.85029    -7.33674    -1.45392
Ni     5.64064    -7.49884    -1.29882
Ni     9.71920    -8.11858    -1.07135
Ni    -9.87652    -8.17928     1.16055
Ni    -5.75322    -7.47294     1.36378
Ni    -1.88083    -7.50772     1.53308
Ni     1.69661    -7.42043     1.58879
Ni     5.72123    -7.46320     1.45147
Ni     9.90579    -8.04096     1.19878
Pt    -9.76471    -7.67413     4.92515
Pt    -5.91251    -7.79503     5.11494
Pt    -1.90771    -7.86627     5.29834
Pt     2.07905    -7.75914     5.29058
Pt     5.87478    -7.80157     5.05879
Pt     9.86621    -7.74181     5.04966
Pt    -5.95860    -8.00367     9.03552
Pt    -1.98048    -8.04121     9.22500
Pt     2.10414    -8.01496     9.21803
Pt     6.09220    -7.97853     9.17736
Pt    -1.88282    -4.07250   -13.15900
Pt     1.97655    -3.97717   -13.17580
Pt    -9.86592    -4.08721    -9.13193
Pt    -5.90170    -4.04081    -9.30430
Pt    -1.99053    -4.00514    -9.19431
Pt     2.04425    -3.96992    -9.30458
Pt     6.00386    -4.13272    -9.25702
Pt     9.91128    -4.20233    -8.88818
Pt    -9.67753    -3.91332    -5.20914
Pt    -5.90236    -3.82600    -5.33138
Pt    -2.04462    -3.87878    -5.52502
Pt     2.02268    -3.97032    -5.52702
Pt     5.89357    -4.02428    -5.34392
Pt     9.76737    -4.02568    -5.16294
Ni   -13.36830    -3.76467    -1.29515
Ni    -9.36886    -3.96640    -1.23990
Ni    -5.41310    -3.74275    -1.69556
Ni    -1.87444    -3.66160    -1.66906
Ni     1.82294    -3.63060    -1.80364
Ni     5.52379    -3.82814    -1.60781
Ni     9.32550    -3.91417    -1.35399
Ni    13.37530    -3.95293    -1.35695
Ni   -13.41320    -3.80374     1.38184
Ni    -9.39650    -3.74739     1.25774
Ni    -5.40854    -3.50281     1.57532
Ni    -1.83408    -3.67800     1.68141
Ni     1.87925    -3.74078     1.56430
Ni     5.61872    -3.55140     1.62424
Ni     9.50388    -3.82342     1.22621
Ni    13.33090    -3.86859     1.14070
Pt    -9.78063    -3.92170     5.13746
Pt    -5.83775    -3.93475     5.29846
Pt    -1.99735    -3.90817     5.41488
Pt     1.99169    -3.92838     5.47651
Pt     5.85112    -3.92225     5.28267
Pt     9.72469    -3.98654     5.16192
Pt    -9.76481    -4.14879     9.01015
Pt    -5.98044    -4.07107     9.27853
Pt    -1.99853    -4.03918     9.35388
Pt     2.11418    -4.06876     9.25358
Pt     6.07354    -3.94378     9.25099
Pt     9.91029    -4.04821     9.00416
Pt    -1.96779    -4.16667    13.02420
Pt     1.97416    -4.06786    13.18710
Pt    -5.84254     0.04588   -13.19410
Pt    -1.96893    -0.16289   -13.11770
Pt     2.02031    -0.06484   -13.11580
Pt     5.88696    -0.16834   -13.04240
Pt    -9.81354    -0.05316    -9.17005
Pt    -5.98259    -0.00410    -9.29227
Pt    -1.88233    -0.08044    -9.41511
Pt     2.00641    -0.08580    -9.26705
Pt     6.00247    -0.09419    -9.19289
Pt     9.88512    -0.15382    -9.09691
Pt   -13.39830    -0.09402    -4.87585
Pt    -9.66608    -0.05113    -5.13921
Pt    -5.84290    -0.04837    -5.49575
Pt    -1.91707    -0.01837    -5.56272
Pt     2.00919    -0.02391    -5.59218
Pt     5.89781    -0.03885    -5.50153
Pt     9.78514     0.08863    -5.21212
Pt    13.55660     0.10317    -4.98569
Ni   -13.90540    -0.02259    -1.17961
Ni    -9.32393     0.21501    -1.53654
Ni    -5.53027    -0.02000    -1.67114
Ni    -1.85521    -0.09609    -1.68847
Ni     1.80832    -0.06569    -1.76510
Ni     5.52309     0.16481    -1.62540
Ni     9.40000     0.11754    -1.65299
Ni    13.65710     0.07062    -1.33790
Ni   -13.66940     0.06339     1.12370
Ni    -9.24262    -0.07935     1.43629
Ni    -5.63932     0.10319     1.62840
Ni    -1.72988    -0.00008     1.65202
Ni     1.87199    -0.00618     1.56543
Ni     5.78074     0.08560     1.67328
Ni     9.57419     0.03632     1.57495
Ni    13.53570    -0.10028     0.98848
Pt   -13.59780     0.06642     4.68358
Pt    -9.79935     0.03914     5.23155
Pt    -5.80033     0.01940     5.50190
Pt    -1.98779     0.03467     5.51311
Pt     2.06236    -0.02150     5.51361
Pt     5.88016     0.08392     5.40015
Pt     9.79680     0.07147     5.30107
Pt    13.59570     0.00241     4.74810
Pt    -9.91746    -0.06928     9.08883
Pt    -5.95252    -0.02757     9.34364
Pt    -1.93320    -0.04506     9.31812
Pt     1.95583     0.05577     9.37239
Pt     5.96375     0.03264     9.29732
Pt    10.01370     0.06212     9.12418
Pt    -5.92414    -0.08060    13.09210
Pt    -1.90327    -0.13100    13.09350
Pt     1.93585    -0.17758    13.21900
Pt     5.81013     0.05222    13.15690
Pt    -2.01548     4.00994   -13.22530
Pt     1.98605     3.85647   -13.31530
Pt    -9.69585     3.89294    -9.10370
Pt    -5.81280     3.83137    -9.20860
Pt    -1.91429     3.87683    -9.33774
Pt     2.06810     3.85071    -9.32695
Pt     5.85607     3.98305    -9.16506
Pt     9.83089     4.13993    -9.15530
Pt    -9.70895     3.92046    -5.25008
Pt    -5.79577     3.85892    -5.40918
Pt    -1.80843     3.79701    -5.48325
Pt     1.98456     3.81875    -5.55157
Pt     5.79677     3.90449    -5.50963
Pt     9.68079     3.95390    -5.13885
Ni   -13.30660     3.84214    -1.27752
Ni    -9.52455     3.96140    -1.19421
Ni    -5.56029     3.78602    -1.66489
Ni    -1.84267     3.75580    -1.57297
Ni     1.82513     3.76551    -1.62076
Ni     5.49972     3.58628    -1.61456
Ni     9.34410     3.77423    -1.27991
Ni    13.26840     3.93473    -1.43511
Ni   -13.49200     4.04431     1.21123
Ni    -9.36102     3.90519     1.43288
Ni    -5.60714     3.74251     1.73240
Ni    -1.87622     3.81474     1.69080
Ni     1.89456     3.79124     1.71495
Ni     5.55443     3.75723     1.60071
Ni     9.40260     3.92688     1.28610
Ni    13.25530     3.88239     1.05563
Pt    -9.86605     3.91387     5.18749
Pt    -5.89335     3.89167     5.43159
Pt    -1.97059     3.91951     5.49025
Pt     1.87808     3.94691     5.59838
Pt     5.90569     3.99346     5.49521
Pt     9.86802     3.80415     5.16309
Pt    -9.98404     4.02602     8.96075
Pt    -6.00269     3.96306     9.23473
Pt    -1.98496     3.88276     9.33400
Pt     2.05214     3.99232     9.43628
Pt     5.87143     3.92390     9.22639
Pt     9.90506     3.99320     9.04729
Pt    -2.02471     3.91591    12.95130
Pt     1.84181     3.93080    13.11440
Pt    -5.93678     7.82884    -9.16629
Pt    -1.86073     7.81663    -9.24131
Pt     1.92467     7.87944    -9.23738
Pt     5.87490     8.03071    -9.07158
Pt    -9.72799     7.73542    -5.07325
Pt    -5.83390     7.67682    -5.33391
Pt    -1.85748     7.76140    -5.41132
Pt     1.88008     7.79909    -5.31375
Pt     5.83597     7.83555    -5.08093
Pt     9.56807     7.75089    -4.90762
Ni    -9.59069     8.10878    -1.21534
Ni    -5.66832     7.34815    -1.34273
Ni    -2.07948     7.52980    -1.69983
Ni     1.70506     7.45409    -1.62636
Ni     5.62528     7.26749    -1.32142
Ni     9.76279     8.10803    -1.15365
Ni    -9.83303     8.03019     1.11282
Ni    -5.71214     7.57244     1.56307
Ni    -1.79271     7.47004     1.65370
Ni     1.81768     7.38212     1.53937
Ni     5.58884     7.35500     1.41673
Ni     9.72795     7.92610     1.15571
Pt    -9.78507     7.76755     5.07074
Pt    -5.90047     7.78536     5.27547
Pt    -1.96729     7.88316     5.39389
Pt     1.94288     7.85755     5.41357
Pt     5.94257     7.87566     5.33376
Pt     9.77388     7.76870     5.00558
Pt    -6.05180     7.94424     9.06794
Pt    -2.10698     8.13952     9.31066
Pt     1.88208     7.93615     9.31770
Pt     5.93398     7.89391     9.06263
Pt    -5.83377    11.61240    -5.05974
Pt    -2.06846    11.66350    -5.07656
Pt     1.93577    11.63570    -5.05570
Pt     5.71052    11.74420    -4.78976
Ni    -5.91918    13.09840    -2.54267
Ni    -2.20524    11.23360    -1.13603
Ni     1.89418    11.65710    -1.06396
Ni     5.81908    12.41710    -2.02058
Ni    -5.85721    12.48870     1.98322
Ni    -2.26103    11.45750     1.28237
Ni     1.98692    11.35060     1.24745
Ni     5.91761    12.58520     2.09864
Pt    -5.95754    11.68190     4.93290
Pt    -1.94380    11.78320     4.98929
Pt     1.98818    11.80740     5.11327
Pt     5.88090    11.77660     4.94210
Pt   -11.80450    -5.81254    -4.92076
Pt   -11.63020    -1.89567    -5.08832
Pt   -11.61270     1.85051    -5.12675
Pt   -11.60660     5.82518    -5.00329
Ni   -12.39640    -5.85991    -1.98281
Ni   -11.42900    -1.96831    -1.11479
Ni   -11.20760     2.06662    -1.26475
Ni   -12.32150     5.95610    -2.18212
Ni   -12.27210    -5.75967     1.88805
Ni   -11.19130    -2.03521     1.19287
Ni   -11.37150     2.20894     1.23827
Ni   -12.38250     5.89827     2.10487
Pt   -11.64370    -5.80196     4.77262
Pt   -11.69900    -1.90786     5.00370
Pt   -11.74330     1.82817     5.03597
Pt   -11.89390     5.89637     4.86487
Pt    -7.94720    -5.98666    -9.03121
Pt    -7.92701    -2.07834    -9.27079
Pt    -7.82236     1.91243    -9.28168
Pt    -7.90715     5.91218    -9.21243
Pt    -7.78735    -9.70524    -5.03783
Pt    -7.84125    -5.90755    -5.17433
Pt    -7.84068    -1.90032    -5.38619
Pt    -7.87706     2.01333    -5.43139
Pt    -7.76833     5.86640    -5.23788
Pt    -7.71019     9.54832    -5.12878
Ni    -8.14013    -9.82270    -1.15526
Ni    -7.47914    -5.67531    -1.36380
Ni    -7.21169    -1.85757    -1.68632
Ni    -7.61769     2.08852    -1.61078
Ni    -7.41710     5.59749    -1.52717
Ni    -7.79485     9.74781    -1.27865
Ni    -8.35332   -10.03550     1.16287
Ni    -7.41775    -5.53634     1.19980
Ni    -7.40887    -1.71823     1.49013
Ni    -7.39554     1.84649     1.68694
Ni    -7.41360     5.68206     1.40958
Ni    -8.09176     9.67008     1.14227
Pt    -7.84043    -9.63469     4.96500
Pt    -7.76145    -5.85160     5.00171
Pt    -7.77158    -1.92452     5.35205
Pt    -7.82151     2.01659     5.44534
Pt    -7.82215     5.84739     5.33353
Pt    -7.86934     9.79591     5.01202
Pt    -7.85463    -6.03014     9.11676
Pt    -7.97328    -2.09255     9.24648
Pt    -8.05885     2.04036     9.27581
Pt    -8.03488     5.88744     9.15314
Pt    -4.02399    -2.02701   -13.18160
Pt    -3.81057     1.86707   -13.16750
Pt    -3.84663    -9.95705    -8.86535
Pt    -3.99471    -5.98814    -9.22670
Pt    -3.93441    -2.02911    -9.28627
Pt    -3.96629     1.93338    -9.37619
Pt    -3.89130     5.84012    -9.24094
Pt    -3.77213     9.79476    -9.13507
Pt    -4.01494    -9.75976    -4.95082
Pt    -3.89521    -5.85117    -5.31164
Pt    -3.91747    -1.91153    -5.51953
Pt    -3.76768     1.91412    -5.43528
Pt    -3.79060     5.73062    -5.40201
Pt    -3.96873     9.55569    -5.35917
Ni    -3.95586   -13.32910    -1.14130
Ni    -3.89130    -9.48193    -1.14140
Ni    -3.70283    -5.58510    -1.66342
Ni    -3.69068    -1.74505    -1.52138
Ni    -3.82602     1.79176    -1.66066
Ni    -3.74943     5.75960    -1.57955
Ni    -3.93473     9.50077    -1.16101
Ni    -3.96341    13.17410    -1.35975
Ni    -3.82437   -13.39590     1.24385
Ni    -3.85383    -9.46352     1.39814
Ni    -3.66124    -5.47916     1.50748
Ni    -3.58717    -1.89530     1.68971
Ni    -3.70945     1.94605     1.51433
Ni    -3.56184     5.51086     1.78154
Ni    -3.88549     9.54436     1.47726
Ni    -3.95098    13.34590     1.03365
Pt    -3.97260    -9.72825     5.05987
Pt    -3.91809    -5.92297     5.37922
Pt    -3.89603    -1.96483     5.49673
Pt    -3.91450     1.93151     5.51856
Pt    -3.91117     5.82468     5.46012
Pt    -3.98056     9.69337     5.14667
Pt    -3.90397    -9.94264     8.98025
Pt    -3.99523    -5.95651     9.21269
Pt    -3.90423    -2.11673     9.34851
Pt    -3.96060     1.98363     9.29002
Pt    -3.94577     5.99653     9.15899
Pt    -4.15417     9.90869     8.98971
Pt    -3.97674    -2.07868    13.08990
Pt    -3.85734     1.82451    13.03210
Pt     0.06077    -5.86169   -13.01950
Pt     0.09079    -2.07843   -13.13250
Pt    -0.02607     1.85211   -13.19940
Pt    -0.11318     5.87483   -13.12820
Pt     0.08433    -9.75727    -9.06800
Pt    -0.02137    -5.99530    -9.19970
Pt    -0.01553    -2.06097    -9.27019
Pt     0.06799     1.88814    -9.48045
Pt     0.14405     5.75693    -9.20097
Pt    -0.04035     9.81595    -9.23314
Pt     0.07521   -13.46710    -4.57810
Pt    -0.00149    -9.72133    -5.12447
Pt     0.00360    -5.83156    -5.47186
Pt     0.05724    -2.02140    -5.65221
Pt     0.00430     1.90257    -5.57624
Pt     0.02734     5.75983    -5.48128
Pt    -0.03857     9.77957    -5.20409
Pt    -0.06166    13.42770    -4.74980
Ni     0.07355   -13.46950    -1.22951
Ni     0.09798    -9.28183    -1.34664
Ni     0.01701    -5.40249    -1.76296
Ni    -0.00458    -1.94592    -1.75600
Ni     0.06620     1.89683    -1.64460
Ni    -0.05040     5.39265    -1.72207
Ni    -0.12600     9.37558    -1.60842
Ni    -0.05132    13.67930    -1.24972
Ni    -0.17628   -13.66190     1.12039
Ni     0.11385    -9.39868     1.35209
Ni    -0.06820    -5.66229     1.72492
Ni     0.12868    -1.78584     1.74566
Ni     0.01940     1.83479     1.64345
Ni     0.05482     5.71824     1.65011
Ni     0.04836     9.45063     1.58377
Ni    -0.04157    13.64970     1.13508
Pt     0.11511   -13.61900     4.64315
Pt     0.12853    -9.81990     5.15013
Pt    -0.07660    -5.87841     5.37025
Pt     0.01336    -1.94843     5.51238
Pt    -0.01397     2.02374     5.61471
Pt    -0.04507     5.86322     5.60833
Pt    -0.07378     9.78066     5.16750
Pt     0.01428    13.65180     4.91560
Pt     0.09540   -10.02120     9.16190
Pt     0.06281    -5.97296     9.25104
Pt     0.08821    -2.01901     9.34236
Pt     0.03398     1.89098     9.37020
Pt    -0.18208     6.09096     9.32113
Pt     0.05866    10.01450     9.25282
Pt     0.14660    -6.00536    13.20340
Pt     0.02122    -2.20108    13.22400
Pt    -0.02965     1.88709    13.07980
Pt     0.03843     5.91764    13.10880
Pt     3.90760    -1.96072   -13.03970
Pt     4.01269     1.89263   -13.13870
Pt     4.01095    -9.80123    -8.88356
Pt     3.95718    -5.93461    -9.18347
Pt     3.99147    -2.06634    -9.31845
Pt     4.00990     1.93894    -9.34494
Pt     3.96239     5.98880    -9.23384
Pt     3.81657     9.77164    -9.04491
Pt     3.87738    -9.67986    -5.05384
Pt     3.98160    -5.86169    -5.34472
Pt     3.92471    -2.01760    -5.56822
Pt     3.91372     1.86164    -5.51783
Pt     3.91131     5.81576    -5.30480
Pt     3.89633     9.71984    -5.11206
Ni     3.88504   -13.52900    -1.13069
Ni     3.90794    -9.41887    -1.22193
Ni     3.70862    -5.68913    -1.69149
Ni     3.74046    -1.75916    -1.64340
Ni     3.58667     1.85080    -1.66253
Ni     3.54548     5.50303    -1.66298
Ni     3.78126     9.55703    -1.21188
Ni     3.74655    13.36530    -1.27996
Ni     4.06420   -13.57970     1.28503
Ni     4.03379    -9.52679     1.33410
Ni     3.54900    -5.58036     1.61794
Ni     3.76449    -1.82591     1.51112
Ni     3.81663     1.88127     1.62889
Ni     3.55642     5.71655     1.62948
Ni     3.66291     9.42833     1.31526
Ni     3.73336    13.38690     1.18569
Pt     3.87282    -9.74211     5.05030
Pt     4.00221    -5.84761     5.32388
Pt     3.93936    -1.93137     5.41042
Pt     3.80465     2.03020     5.49529
Pt     3.96827     5.91425     5.43070
Pt     3.93041     9.72432     5.20554
Pt     4.15493    -9.95607     8.90503
Pt     4.04872    -6.03671     9.13500
Pt     3.93602    -1.99297     9.26093
Pt     4.02903     1.93885     9.35731
Pt     3.88452     5.98370     9.31624
Pt     3.88080     9.90349     9.11142
Pt     4.01057    -2.04735    13.17790
Pt     3.75610     1.93121    13.09850
Pt     7.98480    -6.10756    -8.96555
Pt     7.99144    -2.22657    -9.21138
Pt     7.87489     1.98231    -9.23001
Pt     7.80721     6.08515    -9.09214
Pt     7.76389    -9.82833    -4.88503
Pt     7.96405    -5.97543    -5.13951
Pt     7.92721    -1.94174    -5.39440
Pt     7.84071     1.94855    -5.39529
Pt     7.66947     5.89366    -5.19839
Pt     7.63520     9.77186    -4.92442
Ni     7.84973    -9.51488    -1.24859
Ni     7.36671    -5.72702    -1.20124
Ni     7.63663    -1.65662    -1.60256
Ni     7.42465     1.84631    -1.61985
Ni     7.33863     5.67366    -1.33104
Ni     7.88390     9.83139    -1.13097
Ni     8.24838    -9.97765     1.04130
Ni     7.50736    -5.49985     1.36438
Ni     7.69437    -1.74178     1.64566
Ni     7.65958     1.81017     1.71244
Ni     7.48523     5.60720     1.43526
Ni     7.96527     9.73227     1.21698
Pt     7.84997    -9.78216     4.86005
Pt     7.85070    -5.84153     5.14518
Pt     7.84546    -1.91817     5.34032
Pt     7.85347     2.01057     5.38087
Pt     7.81558     5.86741     5.21879
Pt     7.79997     9.68741     5.02201
Pt     7.93181    -5.95740     9.04651
Pt     8.00633    -1.98982     9.17996
Pt     7.92693     1.99145     9.26671
Pt     7.94139     5.88940     9.03984
Pt    11.66060    -5.95720    -4.81789
Pt    11.75310    -1.91906    -5.09560
Pt    11.71880     2.00740    -5.08590
Pt    11.63620     5.94411    -4.76775
Ni    12.54450    -5.96073    -2.17372
Ni    11.39030    -2.24926    -1.22981
Ni    11.30860     2.01040    -1.18467
Ni    12.53600     5.97017    -2.15363
Ni    12.54960    -5.85270     2.06033
Ni    11.38560    -2.27958     1.10309
Ni    11.38100     2.05066     1.09804
Ni    12.25490     5.74530     1.89932
Pt    11.82610    -5.86203     5.01279
Pt    11.62470    -1.99393     5.14389
Pt    11.88630     1.86385     5.00496
Pt    11.70460     5.67473     4.70380
