959

Pt    -3.90275    -7.80742   -11.77110
Pt     0.00000    -7.73287   -11.78180
Pt     3.90275    -7.80742   -11.77110
Pt    -7.80742    -3.90275   -11.77110
Pt    -3.93242    -3.93242   -11.88060
Pt    -0.00000    -3.84219   -11.78570
Pt     3.93242    -3.93242   -11.88060
Pt     7.80742    -3.90275   -11.77110
Pt    -7.73287    -0.00000   -11.78180
Pt    -3.84219     0.00000   -11.78570
Pt    -0.00000    -0.00000   -11.98470
Pt     3.84219     0.00000   -11.78570
Pt     7.73287     0.00000   -11.78180
Pt    -7.80742     3.90275   -11.77110
Pt    -3.93242     3.93242   -11.88060
Pt    -0.00000     3.84219   -11.78570
Pt     3.93242     3.93242   -11.88060
Pt     7.80742     3.90275   -11.77110
Pt    -3.90275     7.80742   -11.77110
Pt     0.00000     7.73287   -11.78180
Pt     3.90275     7.80742   -11.77110
Pt    -3.90275   -11.77110    -7.80742
Pt    -0.00000   -11.78180    -7.73287
Pt     3.90275   -11.77110    -7.80742
Pt    -8.00149    -8.00149    -8.00149
Pt    -3.81634    -7.86320    -7.86320
Pt     0.00000    -7.97798    -7.97798
Pt     3.81634    -7.86320    -7.86320
Pt     8.00149    -8.00149    -8.00149
Pt   -11.77110    -3.90275    -7.80742
Pt    -7.86320    -3.81634    -7.86320
Pt    -3.89965    -3.89965    -7.82702
Pt    -0.00000    -3.94235    -7.80033
Pt     3.89965    -3.89965    -7.82702
Pt     7.86320    -3.81634    -7.86320
Pt    11.77110    -3.90275    -7.80742
Pt   -11.78180     0.00000    -7.73287
Pt    -7.97798    -0.00000    -7.97798
Pt    -3.94235     0.00000    -7.80033
Pt     0.00000    -0.00000    -7.74378
Pt     3.94235     0.00000    -7.80033
Pt     7.97798    -0.00000    -7.97798
Pt    11.78180     0.00000    -7.73287
Pt   -11.77110     3.90275    -7.80742
Pt    -7.86320     3.81634    -7.86320
Pt    -3.89965     3.89965    -7.82702
Pt    -0.00000     3.94235    -7.80033
Pt     3.89965     3.89965    -7.82702
Pt     7.86320     3.81634    -7.86320
Pt    11.77110     3.90275    -7.80742
Pt    -8.00149     8.00149    -8.00149
Pt    -3.81634     7.86320    -7.86320
Pt    -0.00000     7.97798    -7.97798
Pt     3.81634     7.86320    -7.86320
Pt     8.00149     8.00149    -8.00149
Pt    -3.90275    11.77110    -7.80742
Pt     0.00000    11.78180    -7.73287
Pt     3.90275    11.77110    -7.80742
Pt    -7.80742   -11.77110    -3.90275
Pt    -3.93242   -11.88060    -3.93242
Pt    -0.00000   -11.78570    -3.84219
Pt     3.93242   -11.88060    -3.93242
Pt     7.80742   -11.77110    -3.90275
Pt   -11.77110    -7.80742    -3.90275
Pt    -7.86320    -7.86320    -3.81634
Pt    -3.89965    -7.82702    -3.89965
Pt    -0.00000    -7.80033    -3.94235
Pt     3.89965    -7.82702    -3.89965
Pt     7.86320    -7.86320    -3.81634
Pt    11.77110    -7.80742    -3.90275
Pt   -11.88060    -3.93242    -3.93242
Pt    -7.82702    -3.89965    -3.89965
Pt    -3.87137    -3.87137    -3.87137
Pt     0.00000    -3.83815    -3.83815
Pt     3.87137    -3.87137    -3.87137
Pt     7.82702    -3.89965    -3.89965
Pt    11.88060    -3.93242    -3.93242
Pt   -11.78570     0.00000    -3.84219
Pt    -7.80033    -0.00000    -3.94235
Pt    -3.83815    -0.00000    -3.83815
Pt    -0.00000     0.00000    -3.92726
Pt     3.83815    -0.00000    -3.83815
Pt     7.80033     0.00000    -3.94235
Pt    11.78570     0.00000    -3.84219
Pt   -11.88060     3.93242    -3.93242
Pt    -7.82702     3.89965    -3.89965
Pt    -3.87137     3.87137    -3.87137
Pt    -0.00000     3.83815    -3.83815
Pt     3.87137     3.87137    -3.87137
Pt     7.82702     3.89965    -3.89965
Pt    11.88060     3.93242    -3.93242
Pt   -11.77110     7.80742    -3.90275
Pt    -7.86320     7.86320    -3.81634
Pt    -3.89965     7.82702    -3.89965
Pt    -0.00000     7.80033    -3.94235
Pt     3.89965     7.82702    -3.89965
Pt     7.86320     7.86320    -3.81634
Pt    11.77110     7.80742    -3.90275
Pt    -7.80742    11.77110    -3.90275
Pt    -3.93242    11.88060    -3.93242
Pt    -0.00000    11.78570    -3.84219
Pt     3.93242    11.88060    -3.93242
Pt     7.80742    11.77110    -3.90275
Pt    -7.73287   -11.78180     0.00000
Pt    -3.84219   -11.78570    -0.00000
Pt    -0.00000   -11.98470     0.00000
Pt     3.84219   -11.78570     0.00000
Pt     7.73287   -11.78180    -0.00000
Pt   -11.78180    -7.73287    -0.00000
Pt    -7.97798    -7.97798     0.00000
Pt    -3.94235    -7.80033    -0.00000
Pt     0.00000    -7.74378    -0.00000
Pt     3.94235    -7.80033    -0.00000
Pt     7.97798    -7.97798    -0.00000
Pt    11.78180    -7.73287    -0.00000
Pt   -11.78570    -3.84219     0.00000
Pt    -7.80033    -3.94235     0.00000
Pt    -3.83815    -3.83815    -0.00000
Pt    -0.00000    -3.92726     0.00000
Pt     3.83815    -3.83815    -0.00000
Pt     7.80033    -3.94235     0.00000
Pt    11.78570    -3.84219     0.00000
Pt   -11.98470    -0.00000    -0.00000
Pt    -7.74378    -0.00000    -0.00000
Pt    -3.92726     0.00000     0.00000
Pt    -0.00000    -0.00000    -0.00000
Pt     3.92726     0.00000    -0.00000
Pt     7.74378    -0.00000    -0.00000
Pt    11.98470     0.00000     0.00000
Pt   -11.78570     3.84219     0.00000
Pt    -7.80033     3.94235     0.00000
Pt    -3.83815     3.83815    -0.00000
Pt    -0.00000     3.92726     0.00000
Pt     3.83815     3.83815    -0.00000
Pt     7.80033     3.94235     0.00000
Pt    11.78570     3.84219     0.00000
Pt   -11.78180     7.73287    -0.00000
Pt    -7.97798     7.97798    -0.00000
Pt    -3.94235     7.80033    -0.00000
Pt    -0.00000     7.74378    -0.00000
Pt     3.94235     7.80033     0.00000
Pt     7.97798     7.97798     0.00000
Pt    11.78180     7.73287    -0.00000
Pt    -7.73287    11.78180    -0.00000
Pt    -3.84219    11.78570     0.00000
Pt    -0.00000    11.98470     0.00000
Pt     3.84219    11.78570    -0.00000
Pt     7.73287    11.78180     0.00000
Pt    -7.80742   -11.77110     3.90275
Pt    -3.93242   -11.88060     3.93242
Pt    -0.00000   -11.78570     3.84219
Pt     3.93242   -11.88060     3.93242
Pt     7.80742   -11.77110     3.90275
Pt   -11.77110    -7.80742     3.90275
Pt    -7.86320    -7.86320     3.81634
Pt    -3.89965    -7.82702     3.89965
Pt    -0.00000    -7.80033     3.94235
Pt     3.89965    -7.82702     3.89965
Pt     7.86320    -7.86320     3.81634
Pt    11.77110    -7.80742     3.90275
Pt   -11.88060    -3.93242     3.93242
Pt    -7.82702    -3.89965     3.89965
Pt    -3.87137    -3.87137     3.87137
Pt     0.00000    -3.83815     3.83815
Pt     3.87137    -3.87137     3.87137
Pt     7.82702    -3.89965     3.89965
Pt    11.88060    -3.93242     3.93242
Pt   -11.78570     0.00000     3.84219
Pt    -7.80033     0.00000     3.94235
Pt    -3.83815    -0.00000     3.83815
Pt     0.00000     0.00000     3.92726
Pt     3.83815    -0.00000     3.83815
Pt     7.80033     0.00000     3.94235
Pt    11.78570     0.00000     3.84219
Pt   -11.88060     3.93242     3.93242
Pt    -7.82702     3.89965     3.89965
Pt    -3.87137     3.87137     3.87137
Pt     0.00000     3.83815     3.83815
Pt     3.87137     3.87137     3.87137
Pt     7.82702     3.89965     3.89965
Pt    11.88060     3.93242     3.93242
Pt   -11.77110     7.80742     3.90275
Pt    -7.86320     7.86320     3.81634
Pt    -3.89965     7.82702     3.89965
Pt    -0.00000     7.80033     3.94235
Pt     3.89965     7.82702     3.89965
Pt     7.86320     7.86320     3.81634
Pt    11.77110     7.80742     3.90275
Pt    -7.80742    11.77110     3.90275
Pt    -3.93242    11.88060     3.93242
Pt    -0.00000    11.78570     3.84219
Pt     3.93242    11.88060     3.93242
Pt     7.80742    11.77110     3.90275
Pt    -3.90275   -11.77110     7.80742
Pt     0.00000   -11.78180     7.73287
Pt     3.90275   -11.77110     7.80742
Pt    -8.00149    -8.00149     8.00149
Pt    -3.81634    -7.86320     7.86320
Pt     0.00000    -7.97798     7.97798
Pt     3.81634    -7.86320     7.86320
Pt     8.00149    -8.00149     8.00149
Pt   -11.77110    -3.90275     7.80742
Pt    -7.86320    -3.81634     7.86320
Pt    -3.89965    -3.89965     7.82702
Pt    -0.00000    -3.94235     7.80033
Pt     3.89965    -3.89965     7.82702
Pt     7.86320    -3.81634     7.86320
Pt    11.77110    -3.90275     7.80742
Pt   -11.78180     0.00000     7.73287
Pt    -7.97798    -0.00000     7.97798
Pt    -3.94235     0.00000     7.80033
Pt     0.00000    -0.00000     7.74378
Pt     3.94235     0.00000     7.80033
Pt     7.97798    -0.00000     7.97798
Pt    11.78180     0.00000     7.73287
Pt   -11.77110     3.90275     7.80742
Pt    -7.86320     3.81634     7.86320
Pt    -3.89965     3.89965     7.82702
Pt    -0.00000     3.94235     7.80033
Pt     3.89965     3.89965     7.82702
Pt     7.86320     3.81634     7.86320
Pt    11.77110     3.90275     7.80742
Pt    -8.00149     8.00149     8.00149
Pt    -3.81634     7.86320     7.86320
Pt     0.00000     7.97798     7.97798
Pt     3.81634     7.86320     7.86320
Pt     8.00149     8.00149     8.00149
Pt    -3.90275    11.77110     7.80742
Pt     0.00000    11.78180     7.73287
Pt     3.90275    11.77110     7.80742
Pt    -3.90275    -7.80742    11.77110
Pt     0.00000    -7.73287    11.78180
Pt     3.90275    -7.80742    11.77110
Pt    -7.80742    -3.90275    11.77110
Pt    -3.93242    -3.93242    11.88060
Pt    -0.00000    -3.84219    11.78570
Pt     3.93242    -3.93242    11.88060
Pt     7.80742    -3.90275    11.77110
Pt    -7.73287    -0.00000    11.78180
Pt    -3.84219     0.00000    11.78570
Pt    -0.00000    -0.00000    11.98470
Pt     3.84219     0.00000    11.78570
Pt     7.73287    -0.00000    11.78180
Pt    -7.80742     3.90275    11.77110
Pt    -3.93242     3.93242    11.88060
Pt    -0.00000     3.84219    11.78570
Pt     3.93242     3.93242    11.88060
Pt     7.80742     3.90275    11.77110
Pt    -3.90275     7.80742    11.77110
Pt     0.00000     7.73287    11.78180
Pt     3.90275     7.80742    11.77110
Pt    -5.90778    -5.90778   -11.83540
Pt    -1.97099    -5.82863   -11.73860
Pt     1.97099    -5.82863   -11.73860
Pt     5.90778    -5.90778   -11.83540
Pt    -5.82863    -1.97099   -11.73860
Pt    -1.98475    -1.98475   -11.82860
Pt     1.98475    -1.98475   -11.82860
Pt     5.82863    -1.97099   -11.73860
Pt    -5.82863     1.97099   -11.73860
Pt    -1.98475     1.98475   -11.82860
Pt     1.98475     1.98475   -11.82860
Pt     5.82863     1.97099   -11.73860
Pt    -5.90778     5.90778   -11.83540
Pt    -1.97099     5.82863   -11.73860
Pt     1.97099     5.82863   -11.73860
Pt     5.90778     5.90778   -11.83540
Pt    -5.87679    -9.65834    -7.81056
Pt    -1.85694    -9.88048    -7.81624
Pt     1.85694    -9.88048    -7.81624
Pt     5.87679    -9.65834    -7.81056
Pt    -9.65834    -5.87679    -7.81056
Pt    -5.90777    -5.90777    -7.82213
Pt    -1.92591    -5.92416    -7.89303
Pt     1.92591    -5.92416    -7.89303
Pt     5.90777    -5.90777    -7.82213
Pt     9.65834    -5.87679    -7.81056
Pt    -9.88048    -1.85694    -7.81624
Pt    -5.92416    -1.92591    -7.89303
Pt    -1.91785    -1.91785    -7.83162
Pt     1.91785    -1.91785    -7.83162
Pt     5.92416    -1.92591    -7.89303
Pt     9.88048    -1.85694    -7.81624
Pt    -9.88048     1.85694    -7.81624
Pt    -5.92416     1.92591    -7.89303
Pt    -1.91785     1.91785    -7.83162
Pt     1.91785     1.91785    -7.83162
Pt     5.92416     1.92591    -7.89303
Pt     9.88048     1.85694    -7.81624
Pt    -9.65834     5.87679    -7.81056
Pt    -5.90777     5.90777    -7.82213
Pt    -1.92591     5.92416    -7.89303
Pt     1.92591     5.92416    -7.89303
Pt     5.90777     5.90777    -7.82213
Pt     9.65834     5.87679    -7.81056
Pt    -5.87679     9.65834    -7.81056
Pt    -1.85694     9.88048    -7.81624
Pt     1.85694     9.88048    -7.81624
Pt     5.87679     9.65834    -7.81056
Pt    -1.86053   -13.76210    -3.82226
Pt     1.86053   -13.76210    -3.82226
Pt    -9.80344    -9.80344    -3.77390
Pt    -5.83400    -9.82272    -3.97731
Pt    -1.98726    -9.80582    -3.87885
Pt     1.98726    -9.80582    -3.87885
Pt     5.83400    -9.82272    -3.97731
Pt     9.80344    -9.80344    -3.77390
Pt    -9.82272    -5.83400    -3.97731
Pt    -5.90212    -5.90212    -4.02411
Pt    -2.01669    -5.85711    -3.88866
Pt     2.01669    -5.85711    -3.88866
Pt     5.90212    -5.90212    -4.02411
Pt     9.82272    -5.83400    -3.97731
Pt   -13.76210    -1.86053    -3.82226
Pt    -9.80582    -1.98726    -3.87885
Pt    -5.85711    -2.01669    -3.88866
Pt    -1.92191    -1.92191    -3.85103
Pt     1.92191    -1.92191    -3.85103
Pt     5.85711    -2.01669    -3.88866
Pt     9.80582    -1.98726    -3.87885
Pt    13.76210    -1.86053    -3.82226
Pt   -13.76210     1.86053    -3.82226
Pt    -9.80582     1.98726    -3.87885
Pt    -5.85711     2.01669    -3.88866
Pt    -1.92191     1.92191    -3.85103
Pt     1.92191     1.92191    -3.85103
Pt     5.85711     2.01669    -3.88866
Pt     9.80582     1.98726    -3.87885
Pt    13.76210     1.86053    -3.82226
Pt    -9.82272     5.83400    -3.97731
Pt    -5.90212     5.90212    -4.02411
Pt    -2.01669     5.85711    -3.88866
Pt     2.01669     5.85711    -3.88866
Pt     5.90212     5.90212    -4.02411
Pt     9.82272     5.83400    -3.97731
Pt    -9.80344     9.80344    -3.77390
Pt    -5.83400     9.82272    -3.97731
Pt    -1.98726     9.80582    -3.87885
Pt     1.98726     9.80582    -3.87885
Pt     5.83400     9.82272    -3.97731
Pt     9.80344     9.80344    -3.77390
Pt    -1.86053    13.76210    -3.82226
Pt     1.86053    13.76210    -3.82226
Pt    -5.73291   -13.53850    -0.00000
Pt    -1.91026   -13.89720    -0.00000
Pt     1.91026   -13.89720    -0.00000
Pt     5.73291   -13.53850    -0.00000
Pt    -9.94424    -9.94424    -0.00000
Pt    -5.88434    -9.73301     0.00000
Pt    -1.95281    -9.80046     0.00000
Pt     1.95281    -9.80046     0.00000
Pt     5.88434    -9.73301    -0.00000
Pt     9.94424    -9.94424    -0.00000
Pt   -13.53850    -5.73291     0.00000
Pt    -9.73301    -5.88434     0.00000
Pt    -5.94244    -5.94244     0.00000
Pt    -1.95403    -5.82803     0.00000
Pt     1.95403    -5.82803    -0.00000
Pt     5.94244    -5.94244    -0.00000
Pt     9.73301    -5.88434    -0.00000
Pt    13.53850    -5.73291    -0.00000
Pt   -13.89720    -1.91026     0.00000
Pt    -9.80046    -1.95281     0.00000
Pt    -5.82803    -1.95403    -0.00000
Pt    -1.87787    -1.87787    -0.00000
Pt     1.87787    -1.87787    -0.00000
Pt     5.82803    -1.95403    -0.00000
Pt     9.80046    -1.95281     0.00000
Pt    13.89720    -1.91026     0.00000
Pt   -13.89720     1.91026     0.00000
Pt    -9.80046     1.95281     0.00000
Pt    -5.82803     1.95403    -0.00000
Pt    -1.87787     1.87787    -0.00000
Pt     1.87787     1.87787    -0.00000
Pt     5.82803     1.95403    -0.00000
Pt     9.80046     1.95281     0.00000
Pt    13.89720     1.91026    -0.00000
Pt   -13.53850     5.73291    -0.00000
Pt    -9.73301     5.88434    -0.00000
Pt    -5.94244     5.94244    -0.00000
Pt    -1.95403     5.82803    -0.00000
Pt     1.95403     5.82803     0.00000
Pt     5.94244     5.94244     0.00000
Pt     9.73301     5.88434    -0.00000
Pt    13.53850     5.73291    -0.00000
Pt    -9.94424     9.94424     0.00000
Pt    -5.88434     9.73301    -0.00000
Pt    -1.95281     9.80046     0.00000
Pt     1.95281     9.80046    -0.00000
Pt     5.88434     9.73301    -0.00000
Pt     9.94424     9.94424    -0.00000
Pt    -5.73291    13.53850     0.00000
Pt    -1.91026    13.89720    -0.00000
Pt     1.91026    13.89720    -0.00000
Pt     5.73291    13.53850    -0.00000
Pt    -1.86053   -13.76210     3.82226
Pt     1.86053   -13.76210     3.82226
Pt    -9.80344    -9.80344     3.77390
Pt    -5.83400    -9.82272     3.97731
Pt    -1.98726    -9.80582     3.87885
Pt     1.98726    -9.80582     3.87885
Pt     5.83400    -9.82272     3.97731
Pt     9.80344    -9.80344     3.77390
Pt    -9.82272    -5.83400     3.97731
Pt    -5.90212    -5.90212     4.02411
Pt    -2.01669    -5.85711     3.88866
Pt     2.01669    -5.85711     3.88866
Pt     5.90212    -5.90212     4.02411
Pt     9.82272    -5.83400     3.97731
Pt   -13.76210    -1.86053     3.82226
Pt    -9.80582    -1.98726     3.87885
Pt    -5.85711    -2.01669     3.88866
Pt    -1.92191    -1.92191     3.85103
Pt     1.92191    -1.92191     3.85103
Pt     5.85711    -2.01669     3.88866
Pt     9.80582    -1.98726     3.87885
Pt    13.76210    -1.86053     3.82226
Pt   -13.76210     1.86053     3.82226
Pt    -9.80582     1.98726     3.87885
Pt    -5.85711     2.01669     3.88866
Pt    -1.92191     1.92191     3.85103
Pt     1.92191     1.92191     3.85103
Pt     5.85711     2.01669     3.88866
Pt     9.80582     1.98726     3.87885
Pt    13.76210     1.86053     3.82226
Pt    -9.82272     5.83400     3.97731
Pt    -5.90212     5.90212     4.02411
Pt    -2.01669     5.85711     3.88866
Pt     2.01669     5.85711     3.88866
Pt     5.90212     5.90212     4.02411
Pt     9.82272     5.83400     3.97731
Pt    -9.80344     9.80344     3.77390
Pt    -5.83400     9.82272     3.97731
Pt    -1.98726     9.80582     3.87885
Pt     1.98726     9.80582     3.87885
Pt     5.83400     9.82272     3.97731
Pt     9.80344     9.80344     3.77390
Pt    -1.86053    13.76210     3.82226
Pt     1.86053    13.76210     3.82226
Pt    -5.87679    -9.65834     7.81056
Pt    -1.85694    -9.88048     7.81624
Pt     1.85694    -9.88048     7.81624
Pt     5.87679    -9.65834     7.81056
Pt    -9.65834    -5.87679     7.81056
Pt    -5.90777    -5.90777     7.82213
Pt    -1.92591    -5.92416     7.89303
Pt     1.92591    -5.92416     7.89303
Pt     5.90777    -5.90777     7.82213
Pt     9.65834    -5.87679     7.81056
Pt    -9.88048    -1.85694     7.81624
Pt    -5.92416    -1.92591     7.89303
Pt    -1.91785    -1.91785     7.83162
Pt     1.91785    -1.91785     7.83162
Pt     5.92416    -1.92591     7.89303
Pt     9.88048    -1.85694     7.81624
Pt    -9.88048     1.85694     7.81624
Pt    -5.92416     1.92591     7.89303
Pt    -1.91785     1.91785     7.83162
Pt     1.91785     1.91785     7.83162
Pt     5.92416     1.92591     7.89303
Pt     9.88048     1.85694     7.81624
Pt    -9.65834     5.87679     7.81056
Pt    -5.90777     5.90777     7.82213
Pt    -1.92591     5.92416     7.89303
Pt     1.92591     5.92416     7.89303
Pt     5.90777     5.90777     7.82213
Pt     9.65834     5.87679     7.81056
Pt    -5.87679     9.65834     7.81056
Pt    -1.85694     9.88048     7.81624
Pt     1.85694     9.88048     7.81624
Pt     5.87679     9.65834     7.81056
Pt    -5.90778    -5.90778    11.83540
Pt    -1.97099    -5.82863    11.73860
Pt     1.97099    -5.82863    11.73860
Pt     5.90778    -5.90778    11.83540
Pt    -5.82863    -1.97099    11.73860
Pt    -1.98475    -1.98475    11.82860
Pt     1.98475    -1.98475    11.82860
Pt     5.82863    -1.97099    11.73860
Pt    -5.82863     1.97099    11.73860
Pt    -1.98475     1.98475    11.82860
Pt     1.98475     1.98475    11.82860
Pt     5.82863     1.97099    11.73860
Pt    -5.90778     5.90778    11.83540
Pt    -1.97099     5.82863    11.73860
Pt     1.97099     5.82863    11.73860
Pt     5.90778     5.90778    11.83540
Pt    -5.90778   -11.83540    -5.90778
Pt    -1.97099   -11.73860    -5.82863
Pt     1.97099   -11.73860    -5.82863
Pt     5.90778   -11.83540    -5.90778
Pt    -5.82863   -11.73860    -1.97099
Pt    -1.98475   -11.82860    -1.98475
Pt     1.98475   -11.82860    -1.98475
Pt     5.82863   -11.73860    -1.97099
Pt    -5.82863   -11.73860     1.97099
Pt    -1.98475   -11.82860     1.98475
Pt     1.98475   -11.82860     1.98475
Pt     5.82863   -11.73860     1.97099
Pt    -5.90778   -11.83540     5.90778
Pt    -1.97099   -11.73860     5.82863
Pt     1.97099   -11.73860     5.82863
Pt     5.90778   -11.83540     5.90778
Pt    -5.87679    -7.81056    -9.65834
Pt    -1.85694    -7.81624    -9.88048
Pt     1.85694    -7.81624    -9.88048
Pt     5.87679    -7.81056    -9.65834
Pt    -9.65834    -7.81056    -5.87679
Pt    -5.90777    -7.82213    -5.90777
Pt    -1.92591    -7.89303    -5.92416
Pt     1.92591    -7.89303    -5.92416
Pt     5.90777    -7.82213    -5.90777
Pt     9.65834    -7.81056    -5.87679
Pt    -9.88048    -7.81624    -1.85694
Pt    -5.92416    -7.89303    -1.92591
Pt    -1.91785    -7.83162    -1.91785
Pt     1.91785    -7.83162    -1.91785
Pt     5.92416    -7.89303    -1.92591
Pt     9.88048    -7.81624    -1.85694
Pt    -9.88048    -7.81624     1.85694
Pt    -5.92416    -7.89303     1.92591
Pt    -1.91785    -7.83162     1.91785
Pt     1.91785    -7.83162     1.91785
Pt     5.92416    -7.89303     1.92591
Pt     9.88048    -7.81624     1.85694
Pt    -9.65834    -7.81056     5.87679
Pt    -5.90777    -7.82213     5.90777
Pt    -1.92591    -7.89303     5.92416
Pt     1.92591    -7.89303     5.92416
Pt     5.90777    -7.82213     5.90777
Pt     9.65834    -7.81056     5.87679
Pt    -5.87679    -7.81056     9.65834
Pt    -1.85694    -7.81624     9.88048
Pt     1.85694    -7.81624     9.88048
Pt     5.87679    -7.81056     9.65834
Pt    -1.86053    -3.82226   -13.76210
Pt     1.86053    -3.82226   -13.76210
Pt    -9.80344    -3.77390    -9.80344
Pt    -5.83400    -3.97731    -9.82272
Pt    -1.98726    -3.87885    -9.80582
Pt     1.98726    -3.87885    -9.80582
Pt     5.83400    -3.97731    -9.82272
Pt     9.80344    -3.77390    -9.80344
Pt    -9.82272    -3.97731    -5.83400
Pt    -5.90212    -4.02411    -5.90212
Pt    -2.01669    -3.88866    -5.85711
Pt     2.01669    -3.88866    -5.85711
Pt     5.90212    -4.02411    -5.90212
Pt     9.82272    -3.97731    -5.83400
Pt   -13.76210    -3.82226    -1.86053
Pt    -9.80582    -3.87885    -1.98726
Pt    -5.85711    -3.88866    -2.01669
Pt    -1.92191    -3.85103    -1.92191
Pt     1.92191    -3.85103    -1.92191
Pt     5.85711    -3.88866    -2.01669
Pt     9.80582    -3.87885    -1.98726
Pt    13.76210    -3.82226    -1.86053
Pt   -13.76210    -3.82226     1.86053
Pt    -9.80582    -3.87885     1.98726
Pt    -5.85711    -3.88866     2.01669
Pt    -1.92191    -3.85103     1.92191
Pt     1.92191    -3.85103     1.92191
Pt     5.85711    -3.88866     2.01669
Pt     9.80582    -3.87885     1.98726
Pt    13.76210    -3.82226     1.86053
Pt    -9.82272    -3.97731     5.83400
Pt    -5.90212    -4.02411     5.90212
Pt    -2.01669    -3.88866     5.85711
Pt     2.01669    -3.88866     5.85711
Pt     5.90212    -4.02411     5.90212
Pt     9.82272    -3.97731     5.83400
Pt    -9.80344    -3.77390     9.80344
Pt    -5.83400    -3.97731     9.82272
Pt    -1.98726    -3.87885     9.80582
Pt     1.98726    -3.87885     9.80582
Pt     5.83400    -3.97731     9.82272
Pt     9.80344    -3.77390     9.80344
Pt    -1.86053    -3.82226    13.76210
Pt     1.86053    -3.82226    13.76210
Pt    -5.73291     0.00000   -13.53850
Pt    -1.91026    -0.00000   -13.89720
Pt     1.91026    -0.00000   -13.89720
Pt     5.73291    -0.00000   -13.53850
Pt    -9.94424    -0.00000    -9.94424
Pt    -5.88434    -0.00000    -9.73301
Pt    -1.95281    -0.00000    -9.80046
Pt     1.95281    -0.00000    -9.80046
Pt     5.88434    -0.00000    -9.73301
Pt     9.94424    -0.00000    -9.94424
Pt   -13.53850     0.00000    -5.73291
Pt    -9.73301    -0.00000    -5.88434
Pt    -5.94244     0.00000    -5.94244
Pt    -1.95403    -0.00000    -5.82803
Pt     1.95403    -0.00000    -5.82803
Pt     5.94244     0.00000    -5.94244
Pt     9.73301    -0.00000    -5.88434
Pt    13.53850     0.00000    -5.73291
Pt   -13.89720    -0.00000    -1.91026
Pt    -9.80046     0.00000    -1.95281
Pt    -5.82803    -0.00000    -1.95403
Pt    -1.87787    -0.00000    -1.87787
Pt     1.87787    -0.00000    -1.87787
Pt     5.82803    -0.00000    -1.95403
Pt     9.80046    -0.00000    -1.95281
Pt    13.89720    -0.00000    -1.91026
Pt   -13.89720    -0.00000     1.91026
Pt    -9.80046     0.00000     1.95281
Pt    -5.82803    -0.00000     1.95403
Pt    -1.87787    -0.00000     1.87787
Pt     1.87787    -0.00000     1.87787
Pt     5.82803     0.00000     1.95403
Pt     9.80046     0.00000     1.95281
Pt    13.89720    -0.00000     1.91026
Pt   -13.53850     0.00000     5.73291
Pt    -9.73301    -0.00000     5.88434
Pt    -5.94244     0.00000     5.94244
Pt    -1.95403    -0.00000     5.82803
Pt     1.95403    -0.00000     5.82803
Pt     5.94244     0.00000     5.94244
Pt     9.73301    -0.00000     5.88434
Pt    13.53850    -0.00000     5.73291
Pt    -9.94424    -0.00000     9.94424
Pt    -5.88434    -0.00000     9.73301
Pt    -1.95281    -0.00000     9.80046
Pt     1.95281    -0.00000     9.80046
Pt     5.88434    -0.00000     9.73301
Pt     9.94424    -0.00000     9.94424
Pt    -5.73291    -0.00000    13.53850
Pt    -1.91026    -0.00000    13.89720
Pt     1.91026    -0.00000    13.89720
Pt     5.73291     0.00000    13.53850
Pt    -1.86053     3.82226   -13.76210
Pt     1.86053     3.82226   -13.76210
Pt    -9.80344     3.77390    -9.80344
Pt    -5.83400     3.97731    -9.82272
Pt    -1.98726     3.87885    -9.80582
Pt     1.98726     3.87885    -9.80582
Pt     5.83400     3.97731    -9.82272
Pt     9.80344     3.77390    -9.80344
Pt    -9.82272     3.97731    -5.83400
Pt    -5.90212     4.02411    -5.90212
Pt    -2.01669     3.88866    -5.85711
Pt     2.01669     3.88866    -5.85711
Pt     5.90212     4.02411    -5.90212
Pt     9.82272     3.97731    -5.83400
Pt   -13.76210     3.82226    -1.86053
Pt    -9.80582     3.87885    -1.98726
Pt    -5.85711     3.88866    -2.01669
Pt    -1.92191     3.85103    -1.92191
Pt     1.92191     3.85103    -1.92191
Pt     5.85711     3.88866    -2.01669
Pt     9.80582     3.87885    -1.98726
Pt    13.76210     3.82226    -1.86053
Pt   -13.76210     3.82226     1.86053
Pt    -9.80582     3.87885     1.98726
Pt    -5.85711     3.88866     2.01669
Pt    -1.92191     3.85103     1.92191
Pt     1.92191     3.85103     1.92191
Pt     5.85711     3.88866     2.01669
Pt     9.80582     3.87885     1.98726
Pt    13.76210     3.82226     1.86053
Pt    -9.82272     3.97731     5.83400
Pt    -5.90212     4.02411     5.90212
Pt    -2.01669     3.88866     5.85711
Pt     2.01669     3.88866     5.85711
Pt     5.90212     4.02411     5.90212
Pt     9.82272     3.97731     5.83400
Pt    -9.80344     3.77390     9.80344
Pt    -5.83400     3.97731     9.82272
Pt    -1.98726     3.87885     9.80582
Pt     1.98726     3.87885     9.80582
Pt     5.83400     3.97731     9.82272
Pt     9.80344     3.77390     9.80344
Pt    -1.86053     3.82226    13.76210
Pt     1.86053     3.82226    13.76210
Pt    -5.87679     7.81056    -9.65834
Pt    -1.85694     7.81624    -9.88048
Pt     1.85694     7.81624    -9.88048
Pt     5.87679     7.81056    -9.65834
Pt    -9.65834     7.81056    -5.87679
Pt    -5.90777     7.82213    -5.90777
Pt    -1.92591     7.89303    -5.92416
Pt     1.92591     7.89303    -5.92416
Pt     5.90777     7.82213    -5.90777
Pt     9.65834     7.81056    -5.87679
Pt    -9.88048     7.81624    -1.85694
Pt    -5.92416     7.89303    -1.92591
Pt    -1.91785     7.83162    -1.91785
Pt     1.91785     7.83162    -1.91785
Pt     5.92416     7.89303    -1.92591
Pt     9.88048     7.81624    -1.85694
Pt    -9.88048     7.81624     1.85694
Pt    -5.92416     7.89303     1.92591
Pt    -1.91785     7.83162     1.91785
Pt     1.91785     7.83162     1.91785
Pt     5.92416     7.89303     1.92591
Pt     9.88048     7.81624     1.85694
Pt    -9.65834     7.81056     5.87679
Pt    -5.90777     7.82213     5.90777
Pt    -1.92591     7.89303     5.92416
Pt     1.92591     7.89303     5.92416
Pt     5.90777     7.82213     5.90777
Pt     9.65834     7.81056     5.87679
Pt    -5.87679     7.81056     9.65834
Pt    -1.85694     7.81624     9.88048
Pt     1.85694     7.81624     9.88048
Pt     5.87679     7.81056     9.65834
Pt    -5.90778    11.83540    -5.90778
Pt    -1.97099    11.73860    -5.82863
Pt     1.97099    11.73860    -5.82863
Pt     5.90778    11.83540    -5.90778
Pt    -5.82863    11.73860    -1.97099
Pt    -1.98475    11.82860    -1.98475
Pt     1.98475    11.82860    -1.98475
Pt     5.82863    11.73860    -1.97099
Pt    -5.82863    11.73860     1.97099
Pt    -1.98475    11.82860     1.98475
Pt     1.98475    11.82860     1.98475
Pt     5.82863    11.73860     1.97099
Pt    -5.90778    11.83540     5.90778
Pt    -1.97099    11.73860     5.82863
Pt     1.97099    11.73860     5.82863
Pt     5.90778    11.83540     5.90778
Pt   -11.83540    -5.90778    -5.90778
Pt   -11.73860    -1.97099    -5.82863
Pt   -11.73860     1.97099    -5.82863
Pt   -11.83540     5.90778    -5.90778
Pt   -11.73860    -5.82863    -1.97099
Pt   -11.82860    -1.98475    -1.98475
Pt   -11.82860     1.98475    -1.98475
Pt   -11.73860     5.82863    -1.97099
Pt   -11.73860    -5.82863     1.97099
Pt   -11.82860    -1.98475     1.98475
Pt   -11.82860     1.98475     1.98475
Pt   -11.73860     5.82863     1.97099
Pt   -11.83540    -5.90778     5.90778
Pt   -11.73860    -1.97099     5.82863
Pt   -11.73860     1.97099     5.82863
Pt   -11.83540     5.90778     5.90778
Pt    -7.81056    -5.87679    -9.65834
Pt    -7.81624    -1.85694    -9.88048
Pt    -7.81624     1.85694    -9.88048
Pt    -7.81056     5.87679    -9.65834
Pt    -7.81056    -9.65834    -5.87679
Pt    -7.82213    -5.90777    -5.90777
Pt    -7.89303    -1.92591    -5.92416
Pt    -7.89303     1.92591    -5.92416
Pt    -7.82213     5.90777    -5.90777
Pt    -7.81056     9.65834    -5.87679
Pt    -7.81624    -9.88048    -1.85694
Pt    -7.89303    -5.92416    -1.92591
Pt    -7.83162    -1.91785    -1.91785
Pt    -7.83162     1.91785    -1.91785
Pt    -7.89303     5.92416    -1.92591
Pt    -7.81624     9.88048    -1.85694
Pt    -7.81624    -9.88048     1.85694
Pt    -7.89303    -5.92416     1.92591
Pt    -7.83162    -1.91785     1.91785
Pt    -7.83162     1.91785     1.91785
Pt    -7.89303     5.92416     1.92591
Pt    -7.81624     9.88048     1.85694
Pt    -7.81056    -9.65834     5.87679
Pt    -7.82213    -5.90777     5.90777
Pt    -7.89303    -1.92591     5.92416
Pt    -7.89303     1.92591     5.92416
Pt    -7.82213     5.90777     5.90777
Pt    -7.81056     9.65834     5.87679
Pt    -7.81056    -5.87679     9.65834
Pt    -7.81624    -1.85694     9.88048
Pt    -7.81624     1.85694     9.88048
Pt    -7.81056     5.87679     9.65834
Pt    -3.82226    -1.86053   -13.76210
Pt    -3.82226     1.86053   -13.76210
Pt    -3.77390    -9.80344    -9.80344
Pt    -3.97731    -5.83400    -9.82272
Pt    -3.87885    -1.98726    -9.80582
Pt    -3.87885     1.98726    -9.80582
Pt    -3.97731     5.83400    -9.82272
Pt    -3.77390     9.80344    -9.80344
Pt    -3.97731    -9.82272    -5.83400
Pt    -4.02411    -5.90212    -5.90212
Pt    -3.88866    -2.01669    -5.85711
Pt    -3.88866     2.01669    -5.85711
Pt    -4.02411     5.90212    -5.90212
Pt    -3.97731     9.82272    -5.83400
Pt    -3.82226   -13.76210    -1.86053
Pt    -3.87885    -9.80582    -1.98726
Pt    -3.88866    -5.85711    -2.01669
Pt    -3.85103    -1.92191    -1.92191
Pt    -3.85103     1.92191    -1.92191
Pt    -3.88866     5.85711    -2.01669
Pt    -3.87885     9.80582    -1.98726
Pt    -3.82226    13.76210    -1.86053
Pt    -3.82226   -13.76210     1.86053
Pt    -3.87885    -9.80582     1.98726
Pt    -3.88866    -5.85711     2.01669
Pt    -3.85103    -1.92191     1.92191
Pt    -3.85103     1.92191     1.92191
Pt    -3.88866     5.85711     2.01669
Pt    -3.87885     9.80582     1.98726
Pt    -3.82226    13.76210     1.86053
Pt    -3.97731    -9.82272     5.83400
Pt    -4.02411    -5.90212     5.90212
Pt    -3.88866    -2.01669     5.85711
Pt    -3.88866     2.01669     5.85711
Pt    -4.02411     5.90212     5.90212
Pt    -3.97731     9.82272     5.83400
Pt    -3.77390    -9.80344     9.80344
Pt    -3.97731    -5.83400     9.82272
Pt    -3.87885    -1.98726     9.80582
Pt    -3.87885     1.98726     9.80582
Pt    -3.97731     5.83400     9.82272
Pt    -3.77390     9.80344     9.80344
Pt    -3.82226    -1.86053    13.76210
Pt    -3.82226     1.86053    13.76210
Pt     0.00000    -5.73291   -13.53850
Pt    -0.00000    -1.91026   -13.89720
Pt    -0.00000     1.91026   -13.89720
Pt     0.00000     5.73291   -13.53850
Pt     0.00000    -9.94424    -9.94424
Pt     0.00000    -5.88434    -9.73301
Pt     0.00000    -1.95281    -9.80046
Pt     0.00000     1.95281    -9.80046
Pt     0.00000     5.88434    -9.73301
Pt    -0.00000     9.94424    -9.94424
Pt     0.00000   -13.53850    -5.73291
Pt    -0.00000    -9.73301    -5.88434
Pt    -0.00000    -5.94244    -5.94244
Pt     0.00000    -1.95403    -5.82803
Pt     0.00000     1.95403    -5.82803
Pt    -0.00000     5.94244    -5.94244
Pt     0.00000     9.73301    -5.88434
Pt    -0.00000    13.53850    -5.73291
Pt     0.00000   -13.89720    -1.91026
Pt    -0.00000    -9.80046    -1.95281
Pt     0.00000    -5.82803    -1.95403
Pt    -0.00000    -1.87787    -1.87787
Pt     0.00000     1.87787    -1.87787
Pt     0.00000     5.82803    -1.95403
Pt    -0.00000     9.80046    -1.95281
Pt     0.00000    13.89720    -1.91026
Pt     0.00000   -13.89720     1.91026
Pt    -0.00000    -9.80046     1.95281
Pt     0.00000    -5.82803     1.95403
Pt     0.00000    -1.87787     1.87787
Pt     0.00000     1.87787     1.87787
Pt    -0.00000     5.82803     1.95403
Pt    -0.00000     9.80046     1.95281
Pt     0.00000    13.89720     1.91026
Pt    -0.00000   -13.53850     5.73291
Pt     0.00000    -9.73301     5.88434
Pt     0.00000    -5.94244     5.94244
Pt     0.00000    -1.95403     5.82803
Pt     0.00000     1.95403     5.82803
Pt    -0.00000     5.94244     5.94244
Pt     0.00000     9.73301     5.88434
Pt     0.00000    13.53850     5.73291
Pt     0.00000    -9.94424     9.94424
Pt     0.00000    -5.88434     9.73301
Pt     0.00000    -1.95281     9.80046
Pt     0.00000     1.95281     9.80046
Pt     0.00000     5.88434     9.73301
Pt     0.00000     9.94424     9.94424
Pt     0.00000    -5.73291    13.53850
Pt    -0.00000    -1.91026    13.89720
Pt    -0.00000     1.91026    13.89720
Pt    -0.00000     5.73291    13.53850
Pt     3.82226    -1.86053   -13.76210
Pt     3.82226     1.86053   -13.76210
Pt     3.77390    -9.80344    -9.80344
Pt     3.97731    -5.83400    -9.82272
Pt     3.87885    -1.98726    -9.80582
Pt     3.87885     1.98726    -9.80582
Pt     3.97731     5.83400    -9.82272
Pt     3.77390     9.80344    -9.80344
Pt     3.97731    -9.82272    -5.83400
Pt     4.02411    -5.90212    -5.90212
Pt     3.88866    -2.01669    -5.85711
Pt     3.88866     2.01669    -5.85711
Pt     4.02411     5.90212    -5.90212
Pt     3.97731     9.82272    -5.83400
Pt     3.82226   -13.76210    -1.86053
Pt     3.87885    -9.80582    -1.98726
Pt     3.88866    -5.85711    -2.01669
Pt     3.85103    -1.92191    -1.92191
Pt     3.85103     1.92191    -1.92191
Pt     3.88866     5.85711    -2.01669
Pt     3.87885     9.80582    -1.98726
Pt     3.82226    13.76210    -1.86053
Pt     3.82226   -13.76210     1.86053
Pt     3.87885    -9.80582     1.98726
Pt     3.88866    -5.85711     2.01669
Pt     3.85103    -1.92191     1.92191
Pt     3.85103     1.92191     1.92191
Pt     3.88866     5.85711     2.01669
Pt     3.87885     9.80582     1.98726
Pt     3.82226    13.76210     1.86053
Pt     3.97731    -9.82272     5.83400
Pt     4.02411    -5.90212     5.90212
Pt     3.88866    -2.01669     5.85711
Pt     3.88866     2.01669     5.85711
Pt     4.02411     5.90212     5.90212
Pt     3.97731     9.82272     5.83400
Pt     3.77390    -9.80344     9.80344
Pt     3.97731    -5.83400     9.82272
Pt     3.87885    -1.98726     9.80582
Pt     3.87885     1.98726     9.80582
Pt     3.97731     5.83400     9.82272
Pt     3.77390     9.80344     9.80344
Pt     3.82226    -1.86053    13.76210
Pt     3.82226     1.86053    13.76210
Pt     7.81056    -5.87679    -9.65834
Pt     7.81624    -1.85694    -9.88048
Pt     7.81624     1.85694    -9.88048
Pt     7.81056     5.87679    -9.65834
Pt     7.81056    -9.65834    -5.87679
Pt     7.82213    -5.90777    -5.90777
Pt     7.89303    -1.92591    -5.92416
Pt     7.89303     1.92591    -5.92416
Pt     7.82213     5.90777    -5.90777
Pt     7.81056     9.65834    -5.87679
Pt     7.81624    -9.88048    -1.85694
Pt     7.89303    -5.92416    -1.92591
Pt     7.83162    -1.91785    -1.91785
Pt     7.83162     1.91785    -1.91785
Pt     7.89303     5.92416    -1.92591
Pt     7.81624     9.88048    -1.85694
Pt     7.81624    -9.88048     1.85694
Pt     7.89303    -5.92416     1.92591
Pt     7.83162    -1.91785     1.91785
Pt     7.83162     1.91785     1.91785
Pt     7.89303     5.92416     1.92591
Pt     7.81624     9.88048     1.85694
Pt     7.81056    -9.65834     5.87679
Pt     7.82213    -5.90777     5.90777
Pt     7.89303    -1.92591     5.92416
Pt     7.89303     1.92591     5.92416
Pt     7.82213     5.90777     5.90777
Pt     7.81056     9.65834     5.87679
Pt     7.81056    -5.87679     9.65834
Pt     7.81624    -1.85694     9.88048
Pt     7.81624     1.85694     9.88048
Pt     7.81056     5.87679     9.65834
Pt    11.83540    -5.90778    -5.90778
Pt    11.73860    -1.97099    -5.82863
Pt    11.73860     1.97099    -5.82863
Pt    11.83540     5.90778    -5.90778
Pt    11.73860    -5.82863    -1.97099
Pt    11.82860    -1.98475    -1.98475
Pt    11.82860     1.98475    -1.98475
Pt    11.73860     5.82863    -1.97099
Pt    11.73860    -5.82863     1.97099
Pt    11.82860    -1.98475     1.98475
Pt    11.82860     1.98475     1.98475
Pt    11.73860     5.82863     1.97099
Pt    11.83540    -5.90778     5.90778
Pt    11.73860    -1.97099     5.82863
Pt    11.73860     1.97099     5.82863
Pt    11.83540     5.90778     5.90778
